/*--------------------------------*- C++ -*----------------------------------*\
  =========                 |
  \\      /  F ield         | OpenFOAM: The Open Source CFD Toolbox
   \\    /   O peration     | Website:  https://openfoam.org
    \\  /    A nd           | Version:  8
     \\/     M anipulation  |
\*---------------------------------------------------------------------------*/
FoamFile
{
    version     2.0;
    format      ascii;
    class       extendedFeatureEdgeMesh;
    location    "constant/extendedFeatureEdgeMesh";
    object      inlet.extendedFeatureEdgeMesh;
}
// * * * * * * * * * * * * * * * * * * * * * * * * * * * * * * * * * * * * * //

// points

366
(
(13.850967 -7.3809314 -1128.4833)
(14.0334 -7.4163327 -1128.5024)
(13.640783 -7.3219714 -1128.4617)
(21.171997 -7.2114449 -1129.3002)
(21.372963 -7.1521482 -1129.3242)
(20.914976 -7.2648554 -1129.2701)
(2.691293 8.4273071 -1127.7144)
(2.6737938 8.2841969 -1127.7081)
(2.7281401 8.6089916 -1127.7239)
(2.6606154 8.0099592 -1127.6986)
(24.813293 -4.6338272 -1129.7804)
(24.828333 -4.6138806 -1129.7827)
(24.763826 -4.6872106 -1129.7734)
(20.660824 -7.3234 -1129.2402)
(20.187395 -7.3930659 -1129.1857)
(21.663265 -7.0610881 -1129.3591)
(21.898695 -6.9680777 -1129.3881)
(14.172966 -7.4370832 -1128.5173)
(14.448812 -7.466711 -1128.547)
(13.469862 -7.2662292 -1128.4443)
(13.276542 -7.1939902 -1128.425)
(13.135972 -7.1338124 -1128.4113)
(13.002673 -7.0686326 -1128.3984)
(12.774199 -6.9474916 -1128.3767)
(12.595958 -6.8492317 -1128.3599)
(12.140556 -6.6066113 -1128.3165)
(14.64937 -7.4870729 -1128.5686)
(22.097813 -6.8889818 -1129.4125)
(22.371977 -6.7584066 -1129.4467)
(3.6365466 1.0538957 -1127.6006)
(3.8075705 0.70932668 -1127.6093)
(3.5105453 1.345207 -1127.5952)
(20.113644 19.276728 -1129.9683)
(20.003651 19.318113 -1129.9573)
(20.231127 19.225344 -1129.9797)
(23.239004 -6.1911912 -1129.5597)
(23.323633 -6.1182799 -1129.5713)
(23.121586 -6.281899 -1129.5439)
(22.805244 -6.4956956 -1129.5026)
(23.552469 -5.8995738 -1129.6031)
(19.665251 19.447857 -1129.9236)
(19.362833 19.546509 -1129.8929)
(18.251081 19.82696 -1129.778)
(17.842585 19.893049 -1129.7346)
(18.569927 19.758816 -1129.8113)
(3.2645221 1.9764611 -1127.5867)
(3.4131625 1.5835963 -1127.5914)
(3.1204734 2.4211023 -1127.5839)
(17.331427 19.955696 -1129.6798)
(17.143944 19.967047 -1129.6594)
(17.78936 19.900658 -1129.729)
(2.8936162 3.2969208 -1127.5847)
(2.9731755 2.9557688 -1127.5834)
(2.8592792 3.4890208 -1127.5865)
(16.783955 19.992054 -1129.6202)
(16.351818 20.001137 -1129.5725)
(3.8762319 0.57268143 -1127.6129)
(3.9468181 0.44727758 -1127.6169)
(18.88135 19.68626 -1129.8438)
(19.256639 19.580074 -1129.8822)
(22.780245 -6.5115528 -1129.4993)
(22.761377 -6.5223064 -1129.4969)
(20.491825 19.112009 -1130.0052)
(20.859591 18.93137 -1130.0408)
(18.714838 -7.5259852 -1129.0183)
(18.862171 -7.5116143 -1129.0352)
(18.294609 -7.5422549 -1128.9713)
(3.4515786 1.4819858 -1127.5928)
(27.132803 12.172705 -1130.536)
(27.089911 12.268059 -1130.5341)
(27.15748 12.110559 -1130.537)
(4.128458 0.11917982 -1127.6273)
(8.5726929 18.006132 -1128.6506)
(8.4921865 17.95289 -1128.6401)
(8.6735039 18.066772 -1128.6636)
(5.5455532 -1.7430784 -1127.7294)
(5.8246546 -2.0319145 -1127.7517)
(5.2855511 -1.4503723 -1127.7091)
(3.7193198 12.253237 -1127.9418)
(3.5965269 11.942291 -1127.9189)
(3.8331144 12.509455 -1127.962)
(26.546713 -1.7031124 -1130.0596)
(26.647511 -1.4868276 -1130.0771)
(26.445974 -1.8980277 -1130.0426)
(26.640741 13.21935 -1130.5125)
(26.434126 13.60123 -1130.501)
(26.835855 12.820887 -1130.5223)
(4.828259 14.349318 -1128.127)
(4.7916842 14.290811 -1128.1211)
(4.8562307 14.39017 -1128.1312)
(9.0118818 18.270138 -1128.7072)
(9.3359814 18.447716 -1128.7484)
(24.704739 16.039513 -1130.3815)
(24.515047 16.234598 -1130.3662)
(24.881832 15.84255 -1130.3953)
(20.080002 -7.4114876 -1129.1731)
(19.511019 -7.4666185 -1129.1084)
(14.102316 19.858379 -1129.3188)
(13.994399 19.840948 -1129.3063)
(14.242957 19.875355 -1129.335)
(24.442186 -5.024684 -1129.7277)
(24.578289 -4.8844681 -1129.7469)
(24.268726 -5.1897941 -1129.7036)
(13.400444 19.757383 -1129.238)
(13.080853 19.698368 -1129.2008)
(9.7830343 18.675886 -1128.8047)
(9.5787945 18.573017 -1128.7791)
(10.171551 18.851133 -1128.853)
(14.748207 -7.4927936 -1128.5795)
(15.219142 -7.5247684 -1128.6307)
(15.549847 -7.5417027 -1128.6669)
(15.780046 -7.548512 -1128.6923)
(23.621984 17.084917 -1130.2924)
(23.397984 17.273191 -1130.2731)
(23.914927 16.818762 -1130.3169)
(26.902647 12.685827 -1130.5258)
(26.950836 12.57827 -1130.5278)
(4.3124175 -0.17441864 -1127.639)
(4.520956 -0.47487742 -1127.6533)
(4.2144241 -0.019672079 -1127.6328)
(5.0837579 14.718307 -1128.1663)
(5.3507338 15.073913 -1128.2064)
(24.121288 -5.3453889 -1129.6826)
(23.943583 -5.5194178 -1129.6577)
(6.4882603 16.362196 -1128.3707)
(6.4077845 16.281197 -1128.3594)
(6.5646448 16.433592 -1128.3813)
(3.5393233 11.794993 -1127.9082)
(3.5043726 11.693802 -1127.9014)
(6.2124949 16.083273 -1128.3319)
(6.0379801 15.892901 -1128.3069)
(21.512884 18.582716 -1130.1029)
(21.106926 18.802534 -1130.0643)
(21.788694 18.419777 -1130.1287)
(8.1660776 17.740711 -1128.5977)
(7.9890432 17.61532 -1128.5743)
(2.7603252 8.8439217 -1127.7344)
(2.8572619 9.381464 -1127.761)
(6.7829432 16.641293 -1128.4117)
(6.9636641 16.801151 -1128.4365)
(5.223763 -1.3813781 -1127.7043)
(5.2051125 -1.3584226 -1127.703)
(24.980427 15.732653 -1130.403)
(25.095724 15.594587 -1130.4116)
(10.202904 18.865217 -1128.8569)
(10.242945 18.881527 -1128.8618)
(25.475176 -3.6811998 -1129.8821)
(25.669563 -3.3225417 -1129.9143)
(25.304783 -3.9709487 -1129.8546)
(2.6526442 7.9116817 -1127.6948)
(2.6490963 7.8345871 -1127.6921)
(25.205849 15.46337 -1130.4199)
(25.308527 15.332227 -1130.4274)
(5.3659492 15.094525 -1128.2086)
(5.3799 15.112144 -1128.2107)
(28.089638 8.7533655 -1130.5408)
(28.047358 8.9665012 -1130.5424)
(28.166515 8.2652941 -1130.5348)
(3.3709357 11.31747 -1127.8754)
(3.2265539 10.864998 -1127.8459)
(25.062969 -4.3175921 -1129.8175)
(27.262878 11.847052 -1130.5408)
(27.328854 11.664302 -1130.5427)
(24.365116 16.390068 -1130.3541)
(24.014984 16.72644 -1130.3253)
(2.6070828 6.1094151 -1127.6362)
(2.6214736 5.7186565 -1127.6263)
(2.6063082 6.3652453 -1127.6438)
(3.0815058 10.363551 -1127.8151)
(3.0070045 10.066592 -1127.798)
(3.2033215 10.788333 -1127.8412)
(28.176003 8.2046576 -1130.5341)
(28.178249 8.1846809 -1130.5337)
(28.189077 8.080164 -1130.5319)
(2.6047523 6.6819139 -1127.653)
(2.6148503 7.0502071 -1127.665)
(25.643358 14.875474 -1130.451)
(25.605309 14.928621 -1130.4484)
(25.695124 14.797894 -1130.4545)
(10.634756 19.041039 -1128.91)
(10.862278 19.124529 -1128.9377)
(5.9534979 15.802278 -1128.2948)
(5.8949385 15.735177 -1128.2864)
(18.096989 -7.5530267 -1128.9491)
(17.685022 -7.5605822 -1128.9031)
(28.229465 7.6848035 -1130.5245)
(27.973513 9.3581057 -1130.5458)
(27.88106 9.7805843 -1130.5481)
(2.6196406 7.2722254 -1127.6721)
(27.424932 11.393017 -1130.5453)
(27.515482 11.110109 -1130.547)
(12.083957 19.502773 -1129.0845)
(11.853596 19.443865 -1129.0571)
(12.239552 19.537279 -1129.1027)
(2.9692895 9.9167576 -1127.7893)
(2.8847783 9.5181551 -1127.7682)
(25.910627 14.477218 -1130.4689)
(26.112101 14.157238 -1130.4817)
(28.301743 5.891315 -1130.4794)
(28.301935 5.9258785 -1130.4805)
(28.300854 5.867094 -1130.4786)
(7.8897882 17.545237 -1128.5613)
(7.6591616 17.369642 -1128.5305)
(27.589413 10.880445 -1130.5483)
(27.713238 10.452057 -1130.5494)
(22.383255 -6.7527661 -1129.4481)
(22.478136 -6.6952853 -1129.4603)
(25.398071 15.216587 -1130.434)
(14.777378 19.934475 -1129.396)
(14.999763 19.951122 -1129.4211)
(9.4236422 18.495207 -1128.7595)
(19.427721 -7.4771714 -1129.0989)
(2.8198202 3.7115333 -1127.5887)
(5.6707983 15.473278 -1128.2537)
(7.1050396 16.924551 -1128.4558)
(7.4147072 17.17713 -1128.4977)
(12.77358 19.646788 -1129.1652)
(12.474438 19.587589 -1129.1302)
(3.2158387 10.831643 -1127.8439)
(17.488211 -7.5685859 -1128.8811)
(17.02879 -7.5714984 -1128.8301)
(26.313759 -2.1486239 -1130.0205)
(2.8634584 9.4171362 -1127.7628)
(28.243711 7.4951606 -1130.5205)
(28.264307 7.1982017 -1130.514)
(27.85564 9.897439 -1130.5487)
(27.783321 10.184292 -1130.5492)
(2.6280324 5.5296907 -1127.6215)
(2.6611836 5.0392609 -1127.6106)
(11.109884 19.213715 -1128.9678)
(11.455899 19.327761 -1129.0096)
(27.747488 1.5015744 -1130.2878)
(27.78594 1.6567434 -1130.2966)
(27.703743 1.3430085 -1130.2782)
(3.9227266 12.717916 -1127.9781)
(3.9817462 12.845306 -1127.9885)
(4.1497097 13.188345 -1128.0172)
(22.859768 17.703817 -1130.2262)
(22.684059 17.83367 -1130.2106)
(23.153065 17.474037 -1130.2518)
(4.6041188 -0.59427232 -1127.6589)
(12.129968 -6.600831 -1128.3156)
(12.112185 -6.5904589 -1128.3138)
(27.943319 2.4365945 -1130.3373)
(27.990587 2.7703862 -1130.3524)
(27.923269 2.3229554 -1130.3317)
(26.734058 -1.2979702 -1130.0924)
(26.86231 -1.0036664 -1130.1154)
(26.159645 -2.4378617 -1129.9949)
(28.267963 5.0877438 -1130.4519)
(28.284607 5.3777885 -1130.4623)
(28.25839 4.9806256 -1130.4476)
(28.239485 4.7929201 -1130.4399)
(28.201267 4.4842463 -1130.4265)
(4.5832129 13.963838 -1128.0884)
(4.4876895 13.804022 -1128.073)
(4.326468 13.521383 -1128.0468)
(4.2246962 13.333235 -1128.0299)
(23.987619 16.752853 -1130.323)
(26.398066 13.668523 -1130.4989)
(26.377905 13.703783 -1130.4977)
(4.6624904 -0.67798197 -1127.663)
(4.8597226 -0.9410181 -1127.677)
(27.732731 10.384365 -1130.5496)
(23.615461 -5.8402476 -1129.6118)
(23.714708 -5.7460694 -1129.6256)
(25.833647 -3.0372074 -1129.9409)
(26.035692 -2.6654925 -1129.9744)
(25.730528 -3.2148011 -1129.9243)
(11.815237 19.434055 -1129.0526)
(11.67761 19.393595 -1129.0361)
(11.501336 19.342159 -1129.015)
(22.308186 18.093182 -1130.1765)
(22.30402 18.095854 -1130.1761)
(22.313311 18.089712 -1130.177)
(20.95966 18.882473 -1130.0504)
(21.0117 18.855331 -1130.0553)
(9.0504704 -4.6453838 -1128.032)
(9.20123 -4.7496357 -1128.0457)
(8.8481817 -4.4981332 -1128.0139)
(26.931475 -0.83589798 -1130.1279)
(2.6676207 4.9420333 -1127.6084)
(2.7013543 4.6042027 -1127.6021)
(5.1724787 -1.3189535 -1127.7006)
(7.5297437 17.271427 -1128.5132)
(15.879159 -7.5509968 -1128.7031)
(16.325031 -7.5690188 -1128.7521)
(2.7234411 4.3844628 -1127.598)
(4.8787565 -0.96504718 -1127.6785)
(27.888762 2.127382 -1130.322)
(27.850657 1.9339268 -1130.312)
(27.126759 -0.35515013 -1130.1639)
(27.292086 0.081848726 -1130.1952)
(26.971897 -0.73931479 -1130.1354)
(28.30127 6.3091855 -1130.4918)
(28.294947 6.5763063 -1130.499)
(28.176357 4.2195811 -1130.4159)
(28.106335 3.6310451 -1130.3907)
(2.7993014 3.8314028 -1127.5901)
(2.731286 4.3243709 -1127.5972)
(11.469674 -6.2135434 -1128.2538)
(11.701596 -6.3477287 -1128.2755)
(11.273508 -6.0945811 -1128.2356)
(27.836992 1.8698155 -1130.3086)
(23.283655 17.370842 -1130.2633)
(23.241308 17.405172 -1130.2596)
(6.5037642 -2.6738629 -1127.808)
(6.7673969 -2.903156 -1127.8304)
(6.3436751 -2.5287163 -1127.7946)
(6.1728644 -2.3701084 -1127.7803)
(5.8572345 -2.0650578 -1127.7544)
(22.619207 17.881104 -1130.2047)
(27.321405 0.15939748 -1130.2007)
(27.346035 0.22857876 -1130.2056)
(28.29262 6.6730804 -1130.5016)
(28.271803 7.0590987 -1130.5107)
(12.359556 19.563957 -1129.1168)
(21.887383 18.361046 -1130.1378)
(5.8472071 -2.0551505 -1127.7535)
(28.099388 3.565973 -1130.3881)
(28.079109 3.4076328 -1130.3811)
(2.9853334 2.9027662 -1127.5831)
(3.1172786 2.4322665 -1127.5839)
(3.1200292 2.4224744 -1127.5839)
(26.121172 14.142735 -1130.4823)
(27.68038 1.26285 -1130.2733)
(27.589296 0.94311476 -1130.2537)
(15.296536 19.97323 -1129.4547)
(15.166059 19.964172 -1129.4399)
(15.736019 19.993502 -1129.504)
(16.417013 -7.5717607 -1128.7622)
(27.489668 0.64480245 -1130.2338)
(27.585142 0.93061364 -1130.2528)
(9.3488789 -4.8507042 -1128.059)
(8.6634855 -4.3630862 -1127.9974)
(8.7075834 -4.3944359 -1128.0013)
(8.5953436 -4.3129625 -1127.9913)
(28.288532 5.4415336 -1130.4646)
(7.4986219 17.246574 -1128.509)
(7.4735875 -3.4761055 -1127.8917)
(7.7980886 -3.7251363 -1127.9204)
(7.2480693 -3.2978001 -1127.8721)
(16.901117 -7.5735664 -1128.8158)
(16.494911 -7.5731091 -1128.7708)
(7.1398263 -3.2115574 -1127.8625)
(6.9052711 -3.0185003 -1127.8423)
(9.9712009 -5.2674174 -1128.1156)
(10.099072 -5.350122 -1128.1273)
(9.7387133 -5.1120882 -1128.0945)
(25.298319 -3.9812715 -1129.8536)
(25.212095 -4.1054702 -1129.8403)
(25.074104 -4.3027134 -1129.8192)
(10.897061 -5.8654609 -1128.2006)
(10.213732 -5.4258265 -1128.1378)
(10.499552 -5.6084023 -1128.1641)
(28.01392 2.9292958 -1130.3596)
(6.8100142 -2.9395087 -1127.8341)
(9.4380112 -4.9105039 -1128.0671)
(10.877517 -5.8530979 -1128.1987)
(7.8200235 -3.7418377 -1127.9222)
(7.8443942 -3.7599835 -1127.9244)
(16.343235 20.001202 -1129.5715)
(16.28619 20.000362 -1129.5652)
(15.797717 19.994539 -1129.5109)
(8.2046738 -4.0245643 -1127.9565)
(10.88919 -5.8604317 -1128.1998)
)

// edges

366
(
(0 1)
(2 0)
(3 4)
(5 3)
(6 7)
(8 6)
(7 9)
(10 11)
(12 10)
(13 5)
(14 13)
(15 16)
(4 15)
(1 17)
(17 18)
(19 2)
(20 19)
(21 20)
(22 21)
(23 22)
(24 23)
(25 24)
(18 26)
(27 28)
(16 27)
(29 30)
(31 29)
(32 33)
(34 32)
(35 36)
(37 35)
(38 37)
(36 39)
(40 41)
(33 40)
(42 43)
(44 42)
(45 46)
(47 45)
(48 49)
(50 48)
(51 52)
(53 51)
(54 55)
(49 54)
(56 57)
(30 56)
(58 44)
(59 58)
(60 38)
(61 60)
(62 34)
(63 62)
(64 65)
(66 64)
(67 31)
(46 67)
(68 69)
(70 68)
(57 71)
(72 73)
(74 72)
(75 76)
(77 75)
(78 79)
(80 78)
(81 82)
(83 81)
(84 85)
(86 84)
(87 88)
(89 87)
(90 74)
(91 90)
(92 93)
(94 92)
(95 14)
(96 95)
(97 98)
(99 97)
(100 101)
(102 100)
(103 104)
(98 103)
(105 106)
(107 105)
(26 108)
(108 109)
(109 110)
(110 111)
(112 113)
(114 112)
(115 86)
(116 115)
(117 118)
(119 117)
(120 89)
(121 120)
(122 102)
(123 122)
(124 125)
(126 124)
(127 128)
(79 127)
(129 130)
(125 129)
(131 132)
(133 131)
(134 135)
(73 134)
(136 8)
(137 136)
(138 126)
(139 138)
(140 77)
(141 140)
(101 12)
(142 94)
(143 142)
(144 107)
(145 144)
(146 147)
(148 146)
(149 150)
(9 149)
(151 143)
(152 151)
(153 121)
(154 153)
(155 156)
(157 155)
(128 158)
(158 159)
(11 160)
(161 70)
(162 161)
(163 164)
(93 163)
(71 119)
(165 166)
(167 165)
(168 169)
(170 168)
(171 157)
(172 171)
(173 172)
(174 167)
(175 174)
(176 177)
(178 176)
(179 145)
(180 179)
(181 182)
(130 181)
(183 66)
(184 183)
(185 173)
(156 186)
(186 187)
(150 188)
(188 175)
(189 162)
(190 189)
(191 192)
(193 191)
(194 195)
(169 194)
(196 178)
(197 196)
(198 199)
(200 198)
(201 202)
(135 201)
(69 116)
(203 190)
(204 203)
(205 206)
(28 205)
(206 61)
(207 152)
(177 207)
(208 99)
(209 208)
(210 91)
(106 210)
(211 96)
(65 211)
(212 53)
(213 154)
(182 213)
(214 139)
(215 214)
(216 217)
(104 216)
(218 170)
(159 218)
(219 184)
(220 219)
(221 83)
(222 137)
(195 222)
(223 185)
(224 223)
(225 226)
(187 225)
(227 228)
(166 227)
(229 180)
(230 229)
(231 232)
(233 231)
(234 80)
(235 234)
(236 235)
(237 238)
(239 237)
(118 240)
(241 25)
(242 241)
(243 244)
(245 243)
(82 246)
(246 247)
(248 221)
(249 250)
(251 249)
(252 251)
(253 252)
(254 255)
(88 254)
(255 256)
(256 257)
(257 236)
(258 114)
(164 258)
(259 260)
(85 259)
(261 262)
(240 261)
(263 204)
(226 263)
(39 264)
(264 265)
(265 123)
(266 267)
(268 266)
(269 270)
(192 269)
(270 271)
(272 273)
(274 272)
(275 63)
(276 275)
(132 276)
(277 278)
(279 277)
(247 280)
(41 59)
(281 282)
(228 281)
(283 141)
(202 284)
(111 285)
(285 286)
(282 287)
(267 248)
(288 283)
(289 245)
(290 289)
(291 292)
(293 291)
(294 295)
(199 294)
(296 253)
(297 296)
(298 212)
(299 298)
(300 301)
(302 300)
(232 303)
(304 305)
(113 304)
(305 239)
(306 307)
(308 306)
(309 308)
(310 309)
(311 274)
(238 311)
(312 313)
(292 312)
(314 315)
(295 314)
(316 193)
(217 316)
(317 133)
(273 317)
(315 224)
(318 310)
(76 318)
(319 297)
(320 319)
(321 322)
(52 321)
(323 47)
(322 323)
(260 324)
(325 233)
(326 325)
(327 328)
(329 327)
(328 209)
(286 330)
(313 331)
(331 332)
(278 333)
(334 335)
(336 334)
(335 279)
(337 200)
(250 337)
(338 215)
(339 340)
(341 339)
(342 220)
(343 342)
(330 343)
(344 341)
(345 344)
(346 347)
(348 346)
(349 148)
(350 349)
(351 350)
(352 302)
(353 354)
(347 353)
(355 320)
(303 290)
(244 355)
(356 345)
(307 356)
(333 357)
(357 348)
(354 358)
(359 360)
(340 359)
(147 268)
(43 50)
(361 362)
(55 361)
(362 363)
(363 329)
(280 293)
(287 299)
(271 230)
(364 336)
(360 364)
(301 242)
(284 338)
(262 288)
(160 351)
(324 197)
(332 326)
(358 365)
(365 352)
)

// concaveStart mixedStart nonFeatureStart
0 0 0
// internalStart flatStart openStart multipleStart
0 0 0 366
// normals

238
(
(0.10941609 0.025917644 0.99365809)
(0.10938877 0.03217062 0.99347831)
(0.10985666 0.029786271 0.99350103)
(0.11458678 0.028970062 0.99299074)
(0.081062676 0.054600561 0.99521235)
(0.11025509 0.028879794 0.99348366)
(0.10943333 0.032019235 0.99347829)
(0.11060865 0.030999564 0.99338047)
(0.10972682 0.026816562 0.99359997)
(0.10998151 0.028278893 0.99353126)
(0.11032587 0.030005919 0.99344242)
(0.11032004 0.029980215 0.99344385)
(0.11046245 0.030555431 0.9934105)
(0.11023609 0.029714205 0.99346116)
(0.11018961 0.029561087 0.99347088)
(0.11003301 0.029081635 0.99350239)
(0.10996753 0.028902576 0.99351486)
(0.1115322 0.025860923 0.99342427)
(0.10462666 0.026924618 0.99414703)
(0.11270212 0.035936411 0.99297875)
(0.1080877 0.032576411 0.99360748)
(0.10732808 0.033522935 0.99365834)
(0.11057279 0.029027241 0.99344405)
(0.11058918 0.030478303 0.99339877)
(0.1102353 0.029951387 0.99345412)
(0.10607228 0.028087609 0.99396165)
(0.10937408 0.021777139 0.99376208)
(0.10216857 0.027740396 0.99438024)
(0.11040477 0.032819911 0.99334467)
(0.087782209 0.017416184 0.99598743)
(0.11190632 0.035895802 0.99307022)
(0.043541866 0.13704271 0.9896077)
(0.10702107 0.022415836 0.99400403)
(0.10943036 0.042217706 0.99309751)
(0.087031912 0.019742195 0.99600989)
(0.090045498 0.020109034 0.99573462)
(0.10891387 0.028873119 0.99363178)
(0.10708736 0.034002714 0.99366801)
(0.10338338 0.022993018 0.99437578)
(0.11448444 0.027690918 0.99303904)
(0.11300572 0.028054914 0.99319818)
(0.10129224 0.024920224 0.99454455)
(0.074132714 0.053386482 0.99581837)
(0.11126761 0.027738838 0.99340328)
(0.11099937 0.030233736 0.99336049)
(0.10857543 0.044834411 0.99307666)
(0.10807955 0.047152151 0.99302341)
(0.10070596 0.038996736 0.99415168)
(0.10900416 0.036398607 0.99337467)
(0.11428372 0.02060912 0.99323436)
(0.11103754 0.032012861 0.99330048)
(0.11015062 0.029349356 0.99348148)
(0.11003279 0.028945722 0.99350638)
(0.11047669 0.030601221 0.9934075)
(0.11424663 0.034215449 0.99286304)
(0.12815038 0.038295026 0.99101512)
(0.11916517 0.035542846 0.99223806)
(0.10687765 0.031992413 0.99375734)
(0.11011578 0.029717095 0.99347441)
(0.11182652 0.028117335 0.99332988)
(0.12408444 0.024154741 0.99197762)
(0.10395185 0.035362281 0.99395348)
(0.11219846 0.032928498 0.99314008)
(0.11329492 0.024730939 0.99325356)
(0.11049184 0.029255765 0.99344635)
(0.10839756 0.031479114 0.9936091)
(0.12534093 0.043858638 0.99114382)
(0.103645 0.035990132 0.99396299)
(0.11523778 0.033914185 0.99275882)
(0.095597192 0.062722458 0.99344203)
(0.10649855 0.031576437 0.99381134)
(0.10399107 0.0298443 0.99413036)
(0.11426554 0.033087228 0.9928991)
(0.20382093 -0.046208013 0.9779171)
(0.11685245 0.030571319 0.99267865)
(0.10845505 0.030196111 0.99364264)
(0.11131781 0.029065536 0.99335972)
(0.10302983 0.035130515 0.9940577)
(0.093826168 0.023235161 0.99531743)
(0.10282186 0.021857437 0.99445961)
(0.11333248 0.030879064 0.99307715)
(0.12555983 0.029716404 0.9916409)
(0.10929115 0.029760097 0.99356418)
(0.14066766 0.033960525 0.98947425)
(0.092297734 0.027000108 0.99536532)
(0.11977156 0.029279104 0.99236964)
(0.13168344 0.044235655 0.99030434)
(0.10943722 0.031504519 0.99349432)
(0.13037973 0.010663275 0.99140679)
(0.11064314 0.01956684 0.99366757)
(0.11489395 0.030131282 0.99292068)
(0.11063425 0.029533024 0.9934223)
(0.10866555 0.029234756 0.99364839)
(0.10770624 0.029734617 0.993738)
(0.11170483 0.02926613 0.99331039)
(0.099445455 0.02582043 0.99470795)
(0.1043981 0.052739774 0.99313622)
(0.12157165 0.026792882 0.99222098)
(0.11389561 0.031938036 0.99297923)
(-0.049609426 0.032006944 0.99825571)
(0.10806874 0.03213122 0.99362404)
(0.10937228 0.029094018 0.99357498)
(0.11180706 0.030184166 0.99327141)
(0.10879582 0.028899061 0.99364396)
(0.13444904 -0.011504447 0.99085372)
(0.10996934 0.030259514 0.99347426)
(0.12655253 0.04149945 0.99109145)
(0.10998205 0.031424974 0.99343667)
(0.11468264 0.020626147 0.99318803)
(0.11044144 0.024712756 0.99357535)
(0.10753354 0.028882727 0.99378183)
(0.11704081 0.023853005 0.99284061)
(0.11705277 0.021084386 0.99290186)
(0.11133391 0.023326129 0.99350926)
(0.0064576007 0.060027865 0.99817581)
(0.11026542 0.016748251 0.99376105)
(0.11014943 0.029478321 0.9934778)
(0.049147838 0.042683857 0.99787904)
(0.10904377 0.029297146 0.99360512)
(0.10808011 0.029145555 0.99371486)
(0.10124996 0.027219146 0.99448859)
(0.11136992 0.02953316 0.99334009)
(0.11725966 0.0088212539 0.99306211)
(0.1470993 0.019562334 0.98892826)
(0.12330836 0.023677341 0.9920859)
(0.10037937 0.034004601 0.99436797)
(0.11346677 0.034055139 0.99295797)
(0.10755884 0.028179398 0.99379928)
(0.035396529 -0.1031002 0.99404096)
(0.11588679 0.028612955 0.99285022)
(0.10344266 0.032913081 0.99409071)
(0.11149228 0.028872882 0.99334577)
(0.10706926 0.031026881 0.99376733)
(0.12745089 0.028154205 0.99144521)
(0.11691853 0.028896496 0.99272103)
(0.11294728 0.02922007 0.99317123)
(0.095115728 0.038880198 0.99470665)
(0.10922473 0.029956532 0.99356558)
(0.11046048 0.029198342 0.99345153)
(0.10141522 0.034629317 0.9942413)
(0.071487813 -0.013513998 0.99734992)
(0.10472871 0.025462396 0.99417482)
(0.099385225 0.021429097 0.99481826)
(0.10290967 0.02784169 0.99430098)
(0.11728806 0.02051564 0.99288601)
(0.11017777 0.029403357 0.99347688)
(0.1098787 0.029769839 0.99349908)
(0.093853724 0.038502637 0.99484121)
(0.10371338 0.051770814 0.99325894)
(0.10767174 0.038875416 0.99342614)
(-0.044199841 -0.20295845 0.97818927)
(0.13250958 0.076281925 0.98824201)
(0.10083435 0.011658445 0.99483492)
(0.11595603 0.037520082 0.99254544)
(0.11585672 0.026649419 0.99290837)
(0.11111528 0.033671093 0.99323696)
(0.11245582 0.029890954 0.99320704)
(0.093809875 0.015988307 0.99546174)
(0.10825862 0.032705536 0.99358463)
(0.10959316 0.027107774 0.99360682)
(0.11027352 0.029864343 0.9934525)
(0.11143474 0.029410773 0.99333645)
(0.11138169 0.028842936 0.99335905)
(0.1090708 0.028489527 0.99362564)
(0.11193847 0.029227173 0.99328523)
(0.11497731 0.028730218 0.99295256)
(0.11394816 0.027907376 0.99309466)
(0.12012613 0.02959843 0.99231731)
(0.10399856 0.030102525 0.99412179)
(0.09470836 0.0273592 0.99512904)
(0.11301722 0.034541365 0.99299245)
(0.11559806 0.028048871 0.99289997)
(0.10566409 0.024294266 0.99410507)
(0.12307949 0.045246984 0.99136479)
(0.11547077 0.035524219 0.99267544)
(0.105433 0.024025319 0.99413614)
(0.11429693 0.034031439 0.99286357)
(0.093424334 0.0047445118 0.99561508)
(0.011529971 0.066315056 0.99773211)
(0.09233428 0.02858546 0.99531766)
(0.11337596 0.017283198 0.99340182)
(0.10936768 0.032819159 0.99345942)
(0.11103786 0.031739595 0.99330921)
(0.11025006 0.029619318 0.99346244)
(0.11022434 0.02947891 0.99346947)
(0.17566144 0.093265807 0.98002273)
(0.12435584 0.027658869 0.99185211)
(0.1197846 0.032047255 0.99228253)
(-0 -0 1)
(0.078886792 0.011210511 0.99682054)
(0.083158241 0.036425509 0.99587042)
(0.12360112 0.025765117 0.99199744)
(0.10949611 0.042136861 0.9930937)
(0.1105815 0.022192695 0.99361925)
(0.11032475 0.030092772 0.99343992)
(0.13017741 0.022232055 0.99124143)
(0.11058258 0.029250747 0.9934364)
(0.095066679 0.0078312285 0.9954401)
(0.059913444 -0.040001822 0.99740174)
(0.10073533 0.01596513 0.99478516)
(0.10352561 0.029797883 0.99418033)
(0.10915771 0.03051982 0.9935558)
(0.12859937 0.053502337 0.99025234)
(0.11067756 0.028200523 0.99345619)
(0.11019887 0.029406081 0.99347445)
(0.10944915 0.026116446 0.99364924)
(0.13407937 0.059070745 0.98920846)
(0.11533626 0.037675595 0.99261176)
(0.18103642 -0.020343257 0.98326597)
(0.10843583 0.030523627 0.99363473)
(0.098884723 0.010318734 0.99504539)
(0.099239615 0.012329749 0.99498717)
(0.1204097 0.028160158 0.9923248)
(0.10941069 0.029650334 0.99355431)
(0.11894908 0.027518031 0.99251895)
(0.083110292 -0.0029567518 0.99653597)
(0.12235137 0.046776475 0.99138393)
(0.1061453 0.023496021 0.99407299)
(0.11075865 0.030340881 0.99338409)
(0.3375407 0.34739671 0.87486102)
(0.098122221 0.03687227 0.99449106)
(0.10841824 0.024991172 0.99379119)
(0.11152151 -0.11101536 0.98754167)
(0.11013273 0.029287522 0.99348529)
(0.10962427 0.027507637 0.9935924)
(0.10136338 0.034231578 0.99426036)
(0.097351814 0.026856189 0.99488762)
(0.10492214 0.039579133 0.99369253)
(0.10960429 0.02861662 0.99356328)
(0.11030762 0.029659065 0.99345487)
(0.11017407 0.029482597 0.99347494)
(0.1102751 0.027824247 0.99351156)
(0.12007427 0.034629808 0.99216075)
(0.10991351 0.03184808 0.99343078)
(0.10336199 0.022803613 0.99438237)
(0.10931623 0.031582796 0.99350515)
(0.11157459 0.028783652 0.99333912)
(0.11099923 0.029062284 0.99339547)
)

// normal volume types

238
(
0
0
0
0
0
0
0
0
0
0
0
0
0
0
0
0
0
0
0
0
0
0
0
0
0
0
0
0
0
0
0
0
0
0
0
0
0
0
0
0
0
0
0
0
0
0
0
0
0
0
0
0
0
0
0
0
0
0
0
0
0
0
0
0
0
0
0
0
0
0
0
0
0
0
0
0
0
0
0
0
0
0
0
0
0
0
0
0
0
0
0
0
0
0
0
0
0
0
0
0
0
0
0
0
0
0
0
0
0
0
0
0
0
0
0
0
0
0
0
0
0
0
0
0
0
0
0
0
0
0
0
0
0
0
0
0
0
0
0
0
0
0
0
0
0
0
0
0
0
0
0
0
0
0
0
0
0
0
0
0
0
0
0
0
0
0
0
0
0
0
0
0
0
0
0
0
0
0
0
0
0
0
0
0
0
0
0
0
0
0
0
0
0
0
0
0
0
0
0
0
0
0
0
0
0
0
0
0
0
0
0
0
0
0
0
0
0
0
0
0
0
0
0
0
0
0
0
0
0
0
0
0
0
0
0
0
0
0
)

// normalDirections

366
(
1(1)
1(1)
1(1)
1(1)
1(1)
1(1)
1(1)
1(1)
1(1)
1(1)
1(1)
1(1)
1(1)
1(1)
1(1)
1(1)
1(1)
1(1)
1(1)
1(1)
1(1)
1(1)
1(1)
1(1)
1(1)
1(1)
1(1)
1(1)
1(1)
1(1)
1(1)
1(1)
1(1)
1(1)
1(1)
1(1)
1(1)
1(1)
1(1)
1(1)
1(1)
1(1)
1(1)
1(1)
1(1)
1(1)
1(1)
1(1)
1(1)
1(1)
1(1)
1(1)
1(1)
1(1)
1(1)
1(1)
1(1)
1(1)
1(1)
1(1)
1(1)
1(1)
1(1)
1(1)
1(1)
1(1)
1(1)
1(1)
1(1)
1(1)
1(1)
1(1)
1(1)
1(1)
1(1)
1(1)
1(1)
1(1)
1(1)
1(1)
1(1)
1(1)
1(1)
1(1)
1(1)
1(1)
1(1)
1(1)
1(1)
1(1)
1(1)
1(1)
1(1)
1(1)
1(1)
1(1)
1(1)
1(1)
1(1)
1(1)
1(1)
1(1)
1(1)
1(1)
1(1)
1(1)
1(1)
1(1)
1(1)
1(1)
1(1)
1(1)
1(1)
1(1)
1(1)
1(1)
1(1)
1(1)
1(1)
1(1)
1(1)
1(1)
1(1)
1(1)
1(1)
1(1)
1(1)
1(1)
1(1)
1(1)
1(1)
1(1)
1(1)
1(1)
1(1)
1(1)
1(1)
1(1)
1(1)
1(1)
1(1)
1(1)
1(1)
1(1)
1(1)
1(1)
1(1)
1(1)
1(1)
1(1)
1(1)
1(1)
1(1)
1(1)
1(1)
1(1)
1(1)
1(1)
1(1)
1(1)
1(1)
1(1)
1(1)
1(1)
1(1)
1(1)
1(1)
1(1)
1(1)
1(1)
1(1)
1(1)
1(1)
1(1)
1(1)
1(1)
1(1)
1(1)
1(1)
1(1)
1(1)
1(1)
1(1)
1(1)
1(1)
1(1)
1(1)
1(1)
1(1)
1(1)
1(1)
1(1)
1(1)
1(1)
1(1)
1(1)
1(1)
1(1)
1(1)
1(1)
1(1)
1(1)
1(1)
1(1)
1(1)
1(1)
1(1)
1(1)
1(1)
1(1)
1(1)
1(1)
1(1)
1(1)
1(1)
1(1)
1(1)
1(1)
1(1)
1(1)
1(1)
1(1)
1(1)
1(1)
1(1)
1(1)
1(1)
1(1)
1(1)
1(1)
1(1)
1(1)
1(1)
1(1)
1(1)
1(1)
1(1)
1(1)
1(1)
1(1)
1(1)
1(1)
1(1)
1(1)
1(1)
1(1)
1(1)
1(1)
1(1)
1(1)
1(1)
1(1)
1(1)
1(1)
1(1)
1(1)
1(1)
1(1)
1(1)
1(1)
1(1)
1(1)
1(1)
1(1)
1(1)
1(1)
1(1)
1(1)
1(1)
1(1)
1(1)
1(1)
1(1)
1(1)
1(1)
1(1)
1(1)
1(1)
1(1)
1(1)
1(1)
1(1)
1(1)
1(1)
1(1)
1(1)
1(1)
1(1)
1(1)
1(1)
1(1)
1(1)
1(1)
1(1)
1(1)
1(1)
1(1)
1(1)
1(1)
1(1)
1(1)
1(1)
1(1)
1(1)
1(1)
1(1)
1(1)
1(1)
1(1)
1(1)
1(1)
1(1)
1(1)
1(1)
1(1)
1(1)
1(1)
1(1)
1(1)
1(1)
1(1)
1(1)
1(1)
1(1)
1(1)
1(1)
1(1)
1(1)
1(1)
1(1)
1(1)
1(1)
1(1)
1(1)
1(1)
1(1)
1(1)
1(1)
1(1)
1(1)
1(1)
1(1)
1(1)
1(1)
1(1)
1(1)
1(1)
1(1)
1(1)
1(1)
1(1)
1(1)
1(1)
1(1)
1(1)
1(1)
1(1)
1(1)
1(1)
1(1)
1(1)
1(1)
1(1)
1(1)
1(1)
1(1)
)

// edgeNormals

366
(
1(0)
1(0)
1(1)
1(1)
1(2)
1(2)
1(3)
1(4)
1(4)
1(5)
1(5)
1(6)
1(6)
1(7)
1(8)
1(9)
1(10)
1(11)
1(12)
1(13)
1(14)
1(15)
1(16)
1(17)
1(17)
1(18)
1(18)
1(19)
1(19)
1(20)
1(20)
1(21)
1(22)
1(23)
1(23)
1(24)
1(24)
1(25)
1(25)
1(26)
1(26)
1(27)
1(27)
1(28)
1(28)
1(29)
1(29)
1(30)
1(30)
1(31)
1(31)
1(32)
1(32)
1(33)
1(33)
1(34)
1(34)
1(35)
1(35)
1(36)
1(37)
1(37)
1(38)
1(38)
1(39)
1(39)
1(40)
1(40)
1(41)
1(41)
1(42)
1(42)
1(43)
1(43)
1(44)
1(44)
1(45)
1(45)
1(46)
1(46)
1(47)
1(47)
1(48)
1(48)
1(49)
1(49)
1(50)
1(51)
1(52)
1(53)
1(54)
1(54)
1(55)
1(55)
1(56)
1(56)
1(57)
1(57)
1(58)
1(58)
1(59)
1(59)
1(60)
1(60)
1(61)
1(61)
1(62)
1(62)
1(63)
1(63)
1(64)
1(64)
1(65)
1(65)
1(66)
1(66)
1(67)
1(68)
1(68)
1(69)
1(69)
1(70)
1(70)
1(71)
1(71)
1(72)
1(72)
1(73)
1(73)
1(74)
1(74)
1(75)
1(76)
1(77)
1(78)
1(78)
1(79)
1(79)
1(80)
1(81)
1(81)
1(82)
1(82)
1(83)
1(83)
1(84)
1(85)
1(85)
1(86)
1(86)
1(87)
1(87)
1(88)
1(88)
1(89)
1(89)
1(90)
1(91)
1(92)
1(93)
1(94)
1(95)
1(95)
1(96)
1(96)
1(97)
1(97)
1(98)
1(98)
1(99)
1(99)
1(100)
1(100)
1(101)
1(102)
1(103)
1(104)
1(104)
1(105)
1(106)
1(106)
1(107)
1(107)
1(108)
1(108)
1(109)
1(109)
1(110)
1(111)
1(111)
1(112)
1(112)
1(113)
1(113)
1(114)
1(114)
1(115)
1(115)
1(116)
1(117)
1(117)
1(118)
1(119)
1(120)
1(120)
1(121)
1(121)
1(122)
1(122)
1(123)
1(123)
1(124)
1(124)
1(125)
1(126)
1(126)
1(127)
1(128)
1(128)
1(129)
1(129)
1(130)
1(131)
1(132)
1(133)
1(133)
1(134)
1(135)
1(136)
1(136)
1(137)
1(138)
1(139)
1(140)
1(140)
1(141)
1(141)
1(142)
1(142)
1(143)
1(143)
1(144)
1(145)
1(146)
1(147)
1(147)
1(148)
1(148)
1(149)
1(150)
1(150)
1(151)
1(151)
1(152)
1(153)
1(153)
1(154)
1(155)
1(156)
1(156)
1(157)
1(158)
1(159)
1(160)
1(161)
1(162)
1(163)
1(164)
1(165)
1(166)
1(166)
1(167)
1(167)
1(168)
1(168)
1(169)
1(169)
1(170)
1(170)
1(171)
1(172)
1(172)
1(173)
1(174)
1(174)
1(175)
1(176)
1(177)
1(177)
1(178)
1(178)
1(179)
1(179)
1(180)
1(181)
1(182)
1(183)
1(184)
1(185)
1(185)
1(186)
1(186)
1(187)
1(187)
1(188)
1(188)
1(189)
1(190)
1(191)
1(192)
1(192)
1(193)
1(194)
1(195)
1(196)
1(197)
1(198)
1(198)
1(199)
1(200)
1(200)
1(201)
1(202)
1(202)
1(203)
1(204)
1(205)
1(206)
1(206)
1(207)
1(207)
1(208)
1(208)
1(209)
1(210)
1(211)
1(211)
1(212)
1(213)
1(214)
1(215)
1(215)
1(216)
1(217)
1(218)
1(219)
1(219)
1(220)
1(221)
1(222)
1(222)
1(223)
1(224)
1(225)
1(226)
1(227)
1(228)
1(229)
1(230)
1(231)
1(232)
1(233)
1(234)
1(235)
1(236)
1(237)
)

// featurePointNormals
0()
// featurePointEdges
0()
// regionEdges

366
(
0
1
2
3
4
5
6
7
8
9
10
11
12
13
14
15
16
17
18
19
20
21
22
23
24
25
26
27
28
29
30
31
32
33
34
35
36
37
38
39
40
41
42
43
44
45
46
47
48
49
50
51
52
53
54
55
56
57
58
59
60
61
62
63
64
65
66
67
68
69
70
71
72
73
74
75
76
77
78
79
80
81
82