/*--------------------------------*- C++ -*----------------------------------*\
  =========                 |
  \\      /  F ield         | OpenFOAM: The Open Source CFD Toolbox
   \\    /   O peration     | Website:  https://openfoam.org
    \\  /    A nd           | Version:  8
     \\/     M anipulation  |
\*---------------------------------------------------------------------------*/
FoamFile
{
    version     2.0;
    format      ascii;
    class       extendedFeatureEdgeMesh;
    location    "constant/extendedFeatureEdgeMesh";
    object      outlet2.extendedFeatureEdgeMesh;
}
// * * * * * * * * * * * * * * * * * * * * * * * * * * * * * * * * * * * * * //

// points

78
(
(-0.01013290043920279 0.0651329979300499 -0.1616339981555939)
(-0.01035610027611256 0.06510549783706665 -0.1615030020475388)
(-0.01000100001692772 0.06512150168418884 -0.1617400050163269)
(-0.01428509969264269 0.05986709892749786 -0.1641969978809357)
(-0.01405979972332716 0.05975120142102242 -0.1644800007343292)
(-0.01452559977769852 0.060121800750494 -0.1637579947710037)
(-0.009885299950838089 0.06088700145483017 -0.1662700027227402)
(-0.009640989825129509 0.06113110110163689 -0.1661880016326904)
(-0.01029300037771463 0.06057700142264366 -0.1663040071725845)
(-0.010576699860394 0.06508789956569672 -0.1613640040159225)
(-0.01075679995119572 0.06504309922456741 -0.1612820029258728)
(-0.01424789987504482 0.06267780065536499 -0.1612720042467117)
(-0.01441140007227659 0.0623961016535759 -0.1614509969949722)
(-0.01402449980378151 0.06295669823884964 -0.1611389964818954)
(-0.009726350195705891 0.06509579718112946 -0.1619630008935928)
(-0.009415799751877785 0.06499460339546204 -0.1622910052537918)
(-0.01105649955570698 0.06497000157833099 -0.1611450016498566)
(-0.01145519968122244 0.06481289863586426 -0.1610250025987625)
(-0.01366799976676702 0.05962409824132919 -0.1648930013179779)
(-0.01344539970159531 0.05960319936275482 -0.1650750041007996)
(-0.01382679957896471 0.05967229977250099 -0.1647289991378784)
(-0.01398979965597391 0.05971330031752586 -0.1645700037479401)
(-0.008762960322201252 0.06453630328178406 -0.1632390022277832)
(-0.00896126963198185 0.06472539901733398 -0.1628990024328232)
(-0.00866238959133625 0.06436379998922348 -0.1634919941425323)
(-0.01453819964081049 0.06013379991054535 -0.1637360006570816)
(-0.01454399991780519 0.06014339998364449 -0.1637219935655594)
(-0.009358519688248634 0.06497669965028763 -0.1623509973287582)
(-0.009257939644157887 0.0649155005812645 -0.1624870002269745)
(-0.009035499766469002 0.0647955983877182 -0.162771999835968)
(-0.009510870091617107 0.06126169860363007 -0.166143998503685)
(-0.009358500130474567 0.06145089864730835 -0.1660539954900742)
(-0.008682319894433022 0.06252440065145493 -0.1654099971055984)
(-0.008544920012354851 0.06292969733476639 -0.1650819927453995)
(-0.008794680237770081 0.06230200082063675 -0.1655630022287369)
(-0.008913319557905197 0.06207060068845749 -0.1657209992408752)
(-0.00909143965691328 0.06180179864168167 -0.1658760011196136)
(-0.008540630340576172 0.06294109672307968 -0.1650730073451996)
(-0.008539400063455105 0.06294699758291245 -0.1650680005550385)
(-0.008567679673433304 0.06416299939155579 -0.163771003484726)
(-0.01161849964410067 0.06475459784269333 -0.160970002412796)
(-0.01171100046485662 0.06471110135316849 -0.1609490066766739)
(-0.01216060016304255 0.06447920203208923 -0.1608719974756241)
(-0.009192950092256069 0.06165120005607605 -0.1659619957208633)
(-0.01278700027614832 0.05960049852728844 -0.1655479967594147)
(-0.0125944996252656 0.05963230133056641 -0.1656520068645477)
(-0.0132246995344758 0.05958480015397072 -0.1652520000934601)
(-0.01216359995305538 0.059722900390625 -0.1658650040626526)
(-0.01255450025200844 0.06423260271549225 -0.160849004983902)
(-0.01292639970779419 0.06395690143108368 -0.1608729958534241)
(-0.01224009972065687 0.0644306018948555 -0.1608660072088242)
(-0.008466330356895924 0.06332430243492126 -0.1647240072488785)
(-0.008456810377538204 0.06355690211057663 -0.1644870042800903)
(-0.008514700457453728 0.06399819999933243 -0.1639820039272308)
(-0.008464399725198746 0.06373760104179382 -0.1642909944057465)
(-0.0130281001329422 0.06388329714536667 -0.1608780026435852)
(-0.01319300010800362 0.06374289840459824 -0.1609070003032684)
(-0.01475370023399591 0.06050619855523109 -0.1631910055875778)
(-0.01477370038628578 0.06059519946575165 -0.1630840003490448)
(-0.01482389960438013 0.06092189997434616 -0.1627050042152405)
(-0.01482039969414473 0.06107690185308456 -0.162543997168541)
(-0.01478660013526678 0.06139110028743744 -0.1622390002012253)
(-0.01475800015032291 0.06155560165643692 -0.1620859950780869)
(-0.01466120034456253 0.06187869980931282 -0.1618160009384155)
(-0.01328579988330603 0.05958430096507072 -0.1652079969644547)
(-0.01446389965713024 0.062312301248312 -0.1615020036697388)
(-0.01461239997297525 0.06200189888477325 -0.1617210060358047)
(-0.01038059964776039 0.06050769984722137 -0.1663140058517456)
(-0.01042210031300783 0.06047910079360008 -0.1663150042295456)
(-0.01088310033082962 0.06021390110254288 -0.1662639975547791)
(-0.01349740009754896 0.06349139660596848 -0.1609539985656738)
(-0.01394519954919815 0.06304760277271271 -0.1611000001430511)
(-0.01362229976803064 0.06337679922580719 -0.160984992980957)
(-0.01097869966179132 0.06015760079026222 -0.166254997253418)
(-0.01098820008337498 0.06015359982848167 -0.166252002120018)
(-0.01150820031762123 0.05992960184812546 -0.1661159992218018)
(-0.01204080041497946 0.05975570157170296 -0.1659179925918579)
(-0.01156449969857931 0.05991020053625107 -0.1660960018634796)
)

// edges

78
(
(0 1)
(2 0)
(3 4)
(5 3)
(6 7)
(8 6)
(9 10)
(1 9)
(11 12)
(13 11)
(14 2)
(15 14)
(16 17)
(10 16)
(18 19)
(20 18)
(21 20)
(4 21)
(22 23)
(24 22)
(25 5)
(26 25)
(27 15)
(28 27)
(29 28)
(30 31)
(7 30)
(32 33)
(34 32)
(35 34)
(36 35)
(37 38)
(33 37)
(39 24)
(40 41)
(17 40)
(41 42)
(43 36)
(31 43)
(44 45)
(46 44)
(45 47)
(48 49)
(50 48)
(51 52)
(38 51)
(53 39)
(54 53)
(52 54)
(55 56)
(49 55)
(57 26)
(58 57)
(59 58)
(60 59)
(61 60)
(23 29)
(62 61)
(63 62)
(19 64)
(65 66)
(12 65)
(67 8)
(68 67)
(69 68)
(66 63)
(56 70)
(71 13)
(72 71)
(70 72)
(73 69)
(74 73)
(75 74)
(47 76)
(76 77)
(42 50)
(64 46)
(77 75)
)

// concaveStart mixedStart nonFeatureStart
0 0 0
// internalStart flatStart openStart multipleStart
0 0 0 78
// normals

52
(
(0.4451621396770183 -0.6426242445926236 0.6235902097210466)
(0.444822758724932 -0.6471394975271856 0.6191471424957097)
(0.4435188140216549 -0.6508857279529868 0.6161483837160776)
(0.4438474135295405 -0.6442498099692006 0.6228496253974838)
(0.4435567268428798 -0.6497143790658769 0.6173561822055991)
(0.4412053951847823 -0.6503510532972653 0.6183698785799465)
(0.4419287808269874 -0.6466487545206137 0.6217269022277478)
(0.4496356199340739 -0.639701403704024 0.6233858543355011)
(0.4342525413754175 -0.6582419178247344 0.6149327669976669)
(0.4403028419536548 -0.6506611798899699 0.6186868645378913)
(0.5190549004265642 -0.5894770983340651 0.6189497240348528)
(0.4509214060893941 -0.6404623245117349 0.6216734644581422)
(0.4417357009915861 -0.6500867833883794 0.6182691521766409)
(0.4460311514111751 -0.651257755987551 0.6139377388928627)
(0.4484378313195844 -0.6492142325069831 0.6143487541712418)
(0.4394811994503653 -0.6491992718621744 0.6208031739152844)
(0.2550521402492638 -0.6559475505788076 0.7104091895829702)
(0.4364177296165549 -0.6534926422879547 0.6184552786999549)
(0.4402557780488808 -0.6251815779801585 0.6444554635107175)
(0.4414670933106413 -0.650760255185729 0.6177522932328608)
(0.4483483508470469 -0.6516027250637972 0.6118804172239597)
(0.4415514127053741 -0.6500297425962737 0.6184607373779768)
(0.4429474351885283 -0.6465836529103322 0.6210693596121415)
(0.4441579912404877 -0.6525559855772942 0.6139172293595134)
(0.4361674960897833 -0.6509356075849244 0.6213217766446096)
(0.4416194743766839 -0.649936805968187 0.6185098124517773)
(0.4458425680404519 -0.6471629614001839 0.6183886366313979)
(0.4357456033794814 -0.6532959213829598 0.619136663621079)
(0.4288065325509449 -0.6361241366833611 0.6414600847835226)
(0.4568871964299349 -0.6400373753258584 0.6177428655390368)
(0.4398390957689143 -0.650597728318092 0.6190833269766858)
(0.4341057998302388 -0.6536898297658655 0.619872374779214)
(0.4457274250328382 -0.6477307529680085 0.6178769571954372)
(0.4414590873974622 -0.6507815524116105 0.6177355787025173)
(0.4352751741042661 -0.6525666243959876 0.6202356999826169)
(0.4425508050178349 -0.6493759664861871 0.6184332131509405)
(0.4352260612506885 -0.6569283535526111 0.6156487747952298)
(0.4166686864468749 -0.6486787455345948 0.6368697597046826)
(0.4013206751174709 -0.6063304811679059 0.6865166154798826)
(0.4442017571142873 -0.6544871738864312 0.6118262320256727)
(0.4375996121798217 -0.6513259405597182 0.6199041043371694)
(0.4449223101158908 -0.6530281018048102 0.6128608620350509)
(0.4405090093887475 -0.6499425190695631 0.619295191772756)
(0.4419569361717668 -0.6496173575695477 0.6186043608915338)
(0.4425121553133772 -0.6495232383906708 0.6183061985702598)
(0.4655657929797905 -0.7050204687399915 0.5349716170646268)
(0.4409571489037141 -0.6442386620304791 0.6249106649561087)
(0.439973783417485 -0.6553581323281114 0.6139452649029177)
(0.4419408956714339 -0.6492397079940838 0.6190121535938432)
(0.443033441504171 -0.6483998044111234 0.6191115112389586)
(0.4548017387921024 -0.635134042922985 0.6243077173253461)
(0.4432409489461848 -0.6504056665305208 0.6168548695781485)
)

// normal volume types

52
(
0
0
0
0
0
0
0
0
0
0
0
0
0
0
0
0
0
0
0
0
0
0
0
0
0
0
0
0
0
0
0
0
0
0
0
0
0
0
0
0
0
0
0
0
0
0
0
0
0
0
0
0
)

// normalDirections

78
(
1(1)
1(1)
1(1)
1(1)
1(1)
1(1)
1(1)
1(1)
1(1)
1(1)
1(1)
1(1)
1(1)
1(1)
1(1)
1(1)
1(1)
1(1)
1(1)
1(1)
1(1)
1(1)
1(1)
1(1)
1(1)
1(1)
1(1)
1(1)
1(1)
1(1)
1(1)
1(1)
1(1)
1(1)
1(1)
1(1)
1(1)
1(1)
1(1)
1(1)
1(1)
1(1)
1(1)
1(1)
1(1)
1(1)
1(1)
1(1)
1(1)
1(1)
1(1)
1(1)
1(1)
1(1)
1(1)
1(1)
1(1)
1(1)
1(1)
1(1)
1(1)
1(1)
1(1)
1(1)
1(1)
1(1)
1(1)
1(1)
1(1)
1(1)
1(1)
1(1)
1(1)
1(1)
1(1)
1(1)
1(1)
1(1)
)

// edgeNormals

78
(
1(0)
1(0)
1(1)
1(1)
1(2)
1(2)
1(3)
1(3)
1(4)
1(4)
1(5)
1(5)
1(6)
1(6)
1(7)
1(7)
1(8)
1(8)
1(9)
1(9)
1(10)
1(10)
1(11)
1(11)
1(12)
1(13)
1(13)
1(14)
1(14)
1(15)
1(15)
1(16)
1(16)
1(17)
1(18)
1(18)
1(19)
1(20)
1(20)
1(21)
1(21)
1(22)
1(23)
1(23)
1(24)
1(24)
1(25)
1(26)
1(27)
1(28)
1(28)
1(29)
1(29)
1(30)
1(31)
1(32)
1(33)
1(34)
1(35)
1(36)
1(37)
1(37)
1(38)
1(38)
1(39)
1(40)
1(41)
1(42)
1(43)
1(44)
1(45)
1(45)
1(46)
1(47)
1(48)
1(49)
1(50)
1(51)
)

// featurePointNormals
0()
// featurePointEdges
0()
// regionEdges

78
(
0
1
2
3
4
5
6
7
8
9
10
11
12
13
14
15
16
17
18
19
20
21
22
23
24
25
26
27
28
29
30
31
32
33
34
35
36
37
38
39
40
41
42
43
44
45
46
47
48
49
50
51
52
53
54
55
56
57
58
59
60
61
62
63
64
65
66
67
68
69
70
71
72
73
74
75
76
77
)



// ************************************************************************* //
