/*--------------------------------*- C++ -*----------------------------------*\
  =========                 |
  \\      /  F ield         | OpenFOAM: The Open Source CFD Toolbox
   \\    /   O peration     | Website:  https://openfoam.org
    \\  /    A nd           | Version:  10
     \\/     M anipulation  |
\*---------------------------------------------------------------------------*/
FoamFile
{
    format      ascii;
    class       featureEdgeMesh;
    location    "constant/triSurface";
    object      outlet2.eMesh;
}
// * * * * * * * * * * * * * * * * * * * * * * * * * * * * * * * * * * * * * //


// points:

78
(
(-0.01013290043920279 0.0651329979300499 -0.1616339981555939)
(-0.01035610027611256 0.06510549783706665 -0.1615030020475388)
(-0.01000100001692772 0.06512150168418884 -0.1617400050163269)
(-0.01428509969264269 0.05986709892749786 -0.1641969978809357)
(-0.01405979972332716 0.05975120142102242 -0.1644800007343292)
(-0.01452559977769852 0.060121800750494 -0.1637579947710037)
(-0.009885299950838089 0.06088700145483017 -0.1662700027227402)
(-0.009640989825129509 0.06113110110163689 -0.1661880016326904)
(-0.01029300037771463 0.06057700142264366 -0.1663040071725845)
(-0.010576699860394 0.06508789956569672 -0.1613640040159225)
(-0.01075679995119572 0.06504309922456741 -0.1612820029258728)
(-0.01424789987504482 0.06267780065536499 -0.1612720042467117)
(-0.01441140007227659 0.0623961016535759 -0.1614509969949722)
(-0.01402449980378151 0.06295669823884964 -0.1611389964818954)
(-0.009726350195705891 0.06509579718112946 -0.1619630008935928)
(-0.009415799751877785 0.06499460339546204 -0.1622910052537918)
(-0.01105649955570698 0.06497000157833099 -0.1611450016498566)
(-0.01145519968122244 0.06481289863586426 -0.1610250025987625)
(-0.01366799976676702 0.05962409824132919 -0.1648930013179779)
(-0.01344539970159531 0.05960319936275482 -0.1650750041007996)
(-0.01382679957896471 0.05967229977250099 -0.1647289991378784)
(-0.01398979965597391 0.05971330031752586 -0.1645700037479401)
(-0.008762960322201252 0.06453630328178406 -0.1632390022277832)
(-0.00896126963198185 0.06472539901733398 -0.1628990024328232)
(-0.00866238959133625 0.06436379998922348 -0.1634919941425323)
(-0.01453819964081049 0.06013379991054535 -0.1637360006570816)
(-0.01454399991780519 0.06014339998364449 -0.1637219935655594)
(-0.009358519688248634 0.06497669965028763 -0.1623509973287582)
(-0.009257939644157887 0.0649155005812645 -0.1624870002269745)
(-0.009035499766469002 0.0647955983877182 -0.162771999835968)
(-0.009510870091617107 0.06126169860363007 -0.166143998503685)
(-0.009358500130474567 0.06145089864730835 -0.1660539954900742)
(-0.008682319894433022 0.06252440065145493 -0.1654099971055984)
(-0.008544920012354851 0.06292969733476639 -0.1650819927453995)
(-0.008794680237770081 0.06230200082063675 -0.1655630022287369)
(-0.008913319557905197 0.06207060068845749 -0.1657209992408752)
(-0.00909143965691328 0.06180179864168167 -0.1658760011196136)
(-0.008540630340576172 0.06294109672307968 -0.1650730073451996)
(-0.008539400063455105 0.06294699758291245 -0.1650680005550385)
(-0.008567679673433304 0.06416299939155579 -0.163771003484726)
(-0.01161849964410067 0.06475459784269333 -0.160970002412796)
(-0.01171100046485662 0.06471110135316849 -0.1609490066766739)
(-0.01216060016304255 0.06447920203208923 -0.1608719974756241)
(-0.009192950092256069 0.06165120005607605 -0.1659619957208633)
(-0.01278700027614832 0.05960049852728844 -0.1655479967594147)
(-0.0125944996252656 0.05963230133056641 -0.1656520068645477)
(-0.0132246995344758 0.05958480015397072 -0.1652520000934601)
(-0.01216359995305538 0.059722900390625 -0.1658650040626526)
(-0.01255450025200844 0.06423260271549225 -0.160849004983902)
(-0.01292639970779419 0.06395690143108368 -0.1608729958534241)
(-0.01224009972065687 0.0644306018948555 -0.1608660072088242)
(-0.008466330356895924 0.06332430243492126 -0.1647240072488785)
(-0.008456810377538204 0.06355690211057663 -0.1644870042800903)
(-0.008514700457453728 0.06399819999933243 -0.1639820039272308)
(-0.008464399725198746 0.06373760104179382 -0.1642909944057465)
(-0.0130281001329422 0.06388329714536667 -0.1608780026435852)
(-0.01319300010800362 0.06374289840459824 -0.1609070003032684)
(-0.01475370023399591 0.06050619855523109 -0.1631910055875778)
(-0.01477370038628578 0.06059519946575165 -0.1630840003490448)
(-0.01482389960438013 0.06092189997434616 -0.1627050042152405)
(-0.01482039969414473 0.06107690185308456 -0.162543997168541)
(-0.01478660013526678 0.06139110028743744 -0.1622390002012253)
(-0.01475800015032291 0.06155560165643692 -0.1620859950780869)
(-0.01466120034456253 0.06187869980931282 -0.1618160009384155)
(-0.01328579988330603 0.05958430096507072 -0.1652079969644547)
(-0.01446389965713024 0.062312301248312 -0.1615020036697388)
(-0.01461239997297525 0.06200189888477325 -0.1617210060358047)
(-0.01038059964776039 0.06050769984722137 -0.1663140058517456)
(-0.01042210031300783 0.06047910079360008 -0.1663150042295456)
(-0.01088310033082962 0.06021390110254288 -0.1662639975547791)
(-0.01349740009754896 0.06349139660596848 -0.1609539985656738)
(-0.01394519954919815 0.06304760277271271 -0.1611000001430511)
(-0.01362229976803064 0.06337679922580719 -0.160984992980957)
(-0.01097869966179132 0.06015760079026222 -0.166254997253418)
(-0.01098820008337498 0.06015359982848167 -0.166252002120018)
(-0.01150820031762123 0.05992960184812546 -0.1661159992218018)
(-0.01204080041497946 0.05975570157170296 -0.1659179925918579)
(-0.01156449969857931 0.05991020053625107 -0.1660960018634796)
)


// edges:

78
(
(0 1)
(2 0)
(3 4)
(5 3)
(6 7)
(8 6)
(9 10)
(1 9)
(11 12)
(13 11)
(14 2)
(15 14)
(16 17)
(10 16)
(18 19)
(20 18)
(21 20)
(4 21)
(22 23)
(24 22)
(25 5)
(26 25)
(27 15)
(28 27)
(29 28)
(30 31)
(7 30)
(32 33)
(34 32)
(35 34)
(36 35)
(37 38)
(33 37)
(39 24)
(40 41)
(17 40)
(41 42)
(43 36)
(31 43)
(44 45)
(46 44)
(45 47)
(48 49)
(50 48)
(51 52)
(38 51)
(53 39)
(54 53)
(52 54)
(55 56)
(49 55)
(57 26)
(58 57)
(59 58)
(60 59)
(61 60)
(23 29)
(62 61)
(63 62)
(19 64)
(65 66)
(12 65)
(67 8)
(68 67)
(69 68)
(66 63)
(56 70)
(71 13)
(72 71)
(70 72)
(73 69)
(74 73)
(75 74)
(47 76)
(76 77)
(42 50)
(64 46)
(77 75)
)

// * * * * * * * * * * * * * * * * * * * * * * * * * * * * * * * * * * * * * //


// ************************************************************************* //
