// -*- C++ -*-
// File generated by PyFoam - sorry for the ugliness

FoamFile
{
 version 2.0;
 format ascii;
 class dictionary;
 object blockMeshDict;
}

convertToMeters 1;

vertices (  (214.9149627685547 171.5119171142578 1202.2750244140625)
 (307.52886962890625 171.5119171142578 1202.2750244140625)
 (307.52886962890625 255.17044067382812 1202.2750244140625)
 (214.9149627685547 255.17044067382812 1202.2750244140625)
 (214.9149627685547 171.5119171142578 1354.7127685546875)
 (307.52886962890625 171.5119171142578 1354.7127685546875)
 (307.52886962890625 255.17044067382812 1354.7127685546875)
 (214.9149627685547 255.17044067382812 1354.7127685546875));

blocks (hex (0 1 2 3 4 5 6 7) (150 135 246) simpleGrading (1 1 1));

edges
  (
  );

boundary
  (
    outlet

    {
      type slip;
      faces
        (

          (
            0
            3
            2
            1
          )
        );

    }
    inlet

    {
      type slip;
      faces
        (

          (
            4
            5
            6
            7
          )
        );

    }
  ); 	// ************************************************************************* //

