/*--------------------------------*- C++ -*----------------------------------*\
  =========                 |
  \\      /  F ield         | OpenFOAM: The Open Source CFD Toolbox
   \\    /   O peration     | Website:  https://openfoam.org
    \\  /    A nd           | Version:  8
     \\/     M anipulation  |
\*---------------------------------------------------------------------------*/
FoamFile
{
    version     2.0;
    format      ascii;
    class       extendedFeatureEdgeMesh;
    location    "constant/extendedFeatureEdgeMesh";
    object      outlet_2.extendedFeatureEdgeMesh;
}
// * * * * * * * * * * * * * * * * * * * * * * * * * * * * * * * * * * * * * //

// points

336
(
(-34.147511 4.8339405 -1299.4907)
(-34.146244 4.8352847 -1299.4906)
(-29.121731 -11.404834 -1307.5959)
(-29.117662 -11.406192 -1307.5978)
(-23.740602 9.3648825 -1300.8832)
(-23.740093 9.3648977 -1300.8834)
(-6.3261662 -1.39384 -1310.6112)
(-6.455183 -1.7752721 -1310.7251)
(-6.2482371 -1.065969 -1310.5031)
(-35.175381 3.3785808 -1299.7598)
(-35.112011 3.4848731 -1299.7365)
(-35.202202 3.3218064 -1299.7744)
(-34.563705 4.3355551 -1299.563)
(-34.751556 4.0644231 -1299.6143)
(-6.2235036 -0.9742977 -1310.4738)
(-6.1969671 -0.82051414 -1310.4199)
(-34.895546 3.8577476 -1299.6531)
(-35.402111 2.9198418 -1299.8746)
(-35.537819 2.588861 -1299.9662)
(-7.6375318 4.1108212 -1307.9851)
(-7.4860296 3.912725 -1308.1118)
(-7.7840843 4.2725573 -1307.8745)
(-6.1556373 -0.56341147 -1310.329)
(-6.1368041 -0.34057257 -1310.245)
(-6.1976953 1.1107731 -1309.6407)
(-6.158833 0.76138556 -1309.7937)
(-6.236227 1.3118844 -1309.5476)
(-6.1424785 0.64653122 -1309.8451)
(-6.1337495 0.5225628 -1309.8977)
(-7.2621822 3.6219809 -1308.2983)
(-7.1202984 3.4052753 -1308.4297)
(-8.0045633 4.5255899 -1307.7042)
(-8.2168102 4.7363853 -1307.5535)
(-6.2553544 1.4056031 -1309.5039)
(-6.2858143 1.5170323 -1309.4496)
(-6.346848 1.7333564 -1309.3434)
(-6.1217413 -0.1787186 -1310.1843)
(-6.1179719 -0.056354694 -1310.1361)
(-6.1168017 0.18781061 -1310.038)
(-36.16647 -4.586822 -1302.666)
(-36.175152 -4.556282 -1302.6511)
(-36.154583 -4.6203804 -1302.6832)
(-36.353466 -3.8187733 -1302.2985)
(-36.403229 -3.498395 -1302.1538)
(-36.29789 -4.0761566 -1302.4194)
(-30.599991 -10.801488 -1306.8951)
(-30.822321 -10.687845 -1306.7805)
(-30.389334 -10.894164 -1306.9978)
(-35.601227 2.4418557 -1300.0059)
(-35.659332 2.2855594 -1300.0509)
(-35.549141 -6.1179075 -1303.4746)
(-35.664143 -5.8740935 -1303.3407)
(-35.453087 -6.2935505 -1303.5752)
(-36.421612 -3.4025555 -1302.1094)
(-36.43446 -3.3072422 -1302.067)
(-36.487473 -1.4819958 -1301.3143)
(-36.46376 -1.2168745 -1301.2147)
(-36.498013 -1.7688578 -1301.4269)
(-6.9797254 3.1893122 -1308.5603)
(-6.8790293 3.0129802 -1308.6626)
(-35.783199 -5.6367879 -1303.2081)
(-35.851849 -5.4770904 -1303.1226)
(-35.945244 -5.2425203 -1302.999)
(-31.068119 -10.562905 -1306.6541)
(-31.37722 -10.383974 -1306.4863)
(-35.814957 1.8522744 -1300.1775)
(-35.989384 1.2885482 -1300.351)
(-7.1496463 -3.2066209 -1311.0876)
(-7.1705136 -3.2392547 -1311.0944)
(-7.113112 -3.1427124 -1311.0731)
(-8.9290638 5.3365707 -1307.0911)
(-8.8471489 5.2705908 -1307.1429)
(-8.9914932 5.381567 -1307.0536)
(-16.183571 -11.265551 -1311.5431)
(-16.215542 -11.279077 -1311.5386)
(-16.161722 -11.255196 -1311.5457)
(-36.006065 1.2373861 -1300.3665)
(-36.015911 1.2015233 -1300.3778)
(-6.7879643 2.8426862 -1308.7595)
(-6.6889801 2.6320028 -1308.8751)
(-6.5723839 2.3625083 -1309.0199)
(-6.4802432 2.1307523 -1309.1418)
(-6.384748 1.8546977 -1309.2827)
(-33.654163 5.3525496 -1299.4342)
(-33.432686 5.5637054 -1299.4176)
(-32.993034 5.9562454 -1299.3953)
(-15.569178 -10.982029 -1311.6188)
(-15.020038 -10.701359 -1311.6755)
(-35.310116 -6.5437007 -1303.7203)
(-36.464153 -3.0463915 -1301.9526)
(-8.5187683 5.0069304 -1307.351)
(-8.2648039 4.7817211 -1307.5204)
(-32.749016 6.1623445 -1299.3877)
(-32.284748 6.5274386 -1299.384)
(-29.945961 -11.097201 -1307.2168)
(-30.145538 -11.007696 -1307.119)
(-29.626171 -11.223011 -1307.3666)
(-14.996334 -10.689542 -1311.6781)
(-14.97596 -10.678404 -1311.6799)
(-31.529099 -10.297139 -1306.4043)
(-31.783371 -10.135009 -1306.2603)
(-17.648352 -11.841006 -1311.3219)
(-17.788755 -11.883324 -1311.2955)
(-17.508188 -11.792962 -1311.3459)
(-17.086504 -11.637531 -1311.4137)
(-14.428123 -10.376629 -1311.7277)
(-14.00972 -10.12566 -1311.7559)
(-35.088219 -6.9013023 -1303.9332)
(-35.198097 -6.7259574 -1303.8285)
(-34.917721 -7.1471295 -1304.0852)
(-36.161556 0.65923661 -1300.5515)
(-36.240421 0.30880174 -1300.6685)
(-36.350624 -0.24874307 -1300.8593)
(-36.303196 0.0020367673 -1300.7728)
(-36.38879 -0.50601071 -1300.9512)
(-36.429996 -0.84077531 -1301.0735)
(-18.181253 -12.012301 -1311.2262)
(-18.519112 -12.109947 -1311.161)
(-34.807911 -7.3095045 -1304.1847)
(-34.722897 -7.4237595 -1304.2571)
(-34.52589 -7.6867037 -1304.4241)
(-9.5624571 5.771009 -1306.7198)
(-9.3768044 5.6524968 -1306.8251)
(-9.7490091 5.8791814 -1306.6184)
(-35.994907 -5.1168385 -1302.933)
(-13.863046 -10.036699 -1311.7654)
(-13.641553 -9.8912592 -1311.7753)
(-23.36714 -12.586961 -1309.8534)
(-23.851545 -12.543611 -1309.686)
(-23.082638 -12.600776 -1309.9469)
(-10.219706 -7.0856538 -1311.7024)
(-10.457106 -7.3215518 -1311.724)
(-9.7489948 -6.580431 -1311.6442)
(-9.2804928 5.590713 -1306.8798)
(-20.643431 -12.540775 -1310.6775)
(-20.907749 -12.565721 -1310.6057)
(-20.351759 -12.502891 -1310.7524)
(-12.75364 -9.2900019 -1311.8075)
(-13.081642 -9.5199308 -1311.7987)
(-12.259877 -8.9181051 -1311.8102)
(-13.305358 -9.674881 -1311.792)
(-16.841282 -11.54477 -1311.4521)
(-36.290009 -4.1154432 -1302.4377)
(-36.248047 -4.2755876 -1302.5153)
(-10.861279 -7.7203541 -1311.7599)
(-11.06555 -7.9087243 -1311.7726)
(-11.510777 -8.3065739 -1311.7954)
(-7.3920851 -3.5838571 -1311.1648)
(-7.5288205 -3.7818816 -1311.2024)
(-36.447311 -0.99800718 -1301.1316)
(-15.148795 8.2103519 -1304.0073)
(-14.940438 8.1436787 -1304.0988)
(-15.392516 8.2791538 -1303.9042)
(-36.273911 0.15791406 -1300.719)
(-23.920311 -12.539121 -1309.6628)
(-24.048941 -12.525964 -1309.6178)
(-31.974386 -10.013298 -1306.152)
(-32.05312 -9.9583569 -1306.1055)
(-32.358498 -9.7410269 -1305.9233)
(-19.488708 -12.34223 -1310.9547)
(-19.841965 -12.411275 -1310.8732)
(-19.11132 -12.257005 -1311.0371)
(-33.338402 -8.9457855 -1305.2993)
(-33.427914 -8.863018 -1305.2383)
(-33.233818 -9.0360184 -1305.3682)
(-6.4652362 -1.8053316 -1310.7341)
(-6.4699321 -1.8178586 -1310.7378)
(-36.504375 -1.9164422 -1301.4844)
(-36.504745 -1.9765254 -1301.5085)
(-36.503189 -2.1931748 -1301.5963)
(-18.557241 -12.121077 -1311.1537)
(-18.63743 -12.141783 -1311.1372)
(-12.211152 -8.8807163 -1311.8102)
(-12.085187 -8.7772427 -1311.8075)
(-27.982874 8.7627172 -1299.8135)
(-27.774309 8.8151388 -1299.8569)
(-28.260803 8.6847391 -1299.7589)
(-29.121014 -11.4051 -1307.5963)
(-36.49044 -2.7173121 -1301.8118)
(-36.502262 -2.4242361 -1301.6898)
(-36.475029 -2.933723 -1301.9038)
(-11.660038 -8.4337063 -1311.8004)
(-29.046347 8.4241056 -1299.621)
(-28.969896 8.4523993 -1299.6333)
(-29.253384 8.3398571 -1299.5909)
(-28.868702 8.4873486 -1299.6505)
(-28.668575 8.5568962 -1299.6843)
(-28.395454 8.6447105 -1299.7334)
(-29.364933 8.2922125 -1299.5757)
(-29.500534 8.2317057 -1299.5581)
(-29.674101 8.1497669 -1299.5375)
(-29.835049 8.0708427 -1299.5195)
(-30.008904 7.9827242 -1299.5012)
(-30.195646 7.8826718 -1299.4838)
(-30.378904 7.7813101 -1299.468)
(-30.545973 7.6838417 -1299.4556)
(-30.862986 7.4937992 -1299.4342)
(-31.044447 7.3806453 -1299.4237)
(-31.567253 7.0388403 -1299.3998)
(-18.976471 -12.227489 -1311.0669)
(-8.1761503 -4.6914392 -1311.3689)
(-8.5218458 -5.137908 -1311.442)
(-7.8792267 -4.2871647 -1311.2977)
(-21.039221 -12.580179 -1310.5709)
(-21.364782 -12.605408 -1310.4803)
(-9.8753347 5.95227 -1306.5499)
(-10.145621 6.0998025 -1306.4067)
(-34.049431 -8.249918 -1304.7987)
(-34.173306 -8.1130323 -1304.7051)
(-33.843628 -8.4629917 -1304.9482)
(-6.6645379 -2.2912419 -1310.8685)
(-6.7120862 -2.3939898 -1310.8953)
(-6.8784099 -2.7277946 -1310.9784)
(-13.303741 7.5532298 -1304.8433)
(-12.841543 7.3596334 -1305.0645)
(-13.429429 7.5996447 -1304.7858)
(-28.320658 8.6678362 -1299.7472)
(-6.9275503 -2.8188167 -1310.9999)
(-33.780994 -8.5271387 -1304.9935)
(-32.913891 -9.3131533 -1305.5789)
(-8.613349 -5.2575569 -1311.462)
(-8.9850321 -5.7089214 -1311.5291)
(-7.8350511 -4.2254753 -1311.2865)
(-27.649872 8.844799 -1299.8834)
(-27.331709 8.9124966 -1299.9546)
(-27.048288 8.9704304 -1300.0189)
(-26.686695 9.0414228 -1300.1022)
(-26.379074 9.0965071 -1300.175)
(-26.109232 9.1386566 -1300.2416)
(-25.907627 9.1682777 -1300.292)
(-22.886099 9.3796501 -1301.1417)
(-22.60309 9.3723822 -1301.2322)
(-23.05961 9.379447 -1301.088)
(-21.415037 -12.608869 -1310.4662)
(-21.518496 -12.613096 -1310.4359)
(-13.958729 7.8062644 -1304.5386)
(-13.554231 7.6461535 -1304.7283)
(-14.075513 7.8473215 -1304.4858)
(-14.33005 7.9363804 -1304.3712)
(-21.881504 -12.628051 -1310.3296)
(-21.954571 -12.62932 -1310.3075)
(-21.838936 -12.626188 -1310.342)
(-9.625701 -6.4492841 -1311.6295)
(-9.1116533 -5.861527 -1311.5514)
(-36.504017 -2.3573172 -1301.6624)
(-22.341717 -12.630838 -1310.1884)
(-22.658962 -12.624508 -1310.0876)
(-22.837013 -12.616783 -1310.0294)
(-20.346321 -12.502157 -1310.7538)
(-20.334381 -12.500185 -1310.7567)
(-19.984505 -12.4397 -1310.8406)
(-12.775448 7.3338366 -1305.0952)
(-12.600084 7.259254 -1305.1796)
(-24.374262 -12.489705 -1309.5024)
(-24.60685 -12.4584 -1309.4178)
(-25.774456 9.1848097 -1300.3265)
(-25.188377 9.2571592 -1300.4788)
(-25.001005 9.2754564 -1300.5293)
(-24.527534 9.3193378 -1300.6581)
(-24.320982 9.3338928 -1300.7162)
(-34.448341 -7.7846394 -1304.4875)
(-34.357452 -7.8976479 -1304.5613)
(-34.240078 -8.0366011 -1304.6537)
(-32.446846 -9.6790714 -1305.871)
(-32.480873 -9.6537123 -1305.8502)
(-32.793343 -9.4107714 -1305.6555)
(-32.173008 6.6112604 -1299.3848)
(-31.651716 6.9822016 -1299.3965)
(-28.555475 -11.588738 -1307.8453)
(-28.43803 -11.62193 -1307.895)
(-34.14711 4.8344111 -1299.4907)
(-9.090107 -5.8369603 -1311.5482)
(-11.617364 6.8217878 -1305.6602)
(-11.445749 6.7390165 -1305.7466)
(-11.891058 6.9460464 -1305.5254)
(-17.401129 8.7567072 -1303.0901)
(-17.26218 8.7288828 -1303.1443)
(-17.474411 8.7697201 -1303.0621)
(-17.834957 8.83743 -1302.9233)
(-18.223053 8.9027958 -1302.7769)
(-12.328443 7.1418581 -1305.311)
(-12.232476 7.097477 -1305.3586)
(-16.975815 8.6713152 -1303.2561)
(-16.88205 8.6500053 -1303.2937)
(-14.621085 8.0412092 -1304.2389)
(-14.518008 8.0052061 -1304.2853)
(-16.530602 8.5703001 -1303.4346)
(-23.740349 9.364893 -1300.8833)
(-25.73209 -12.280794 -1308.998)
(-25.903076 -12.247138 -1308.9316)
(-25.53688 -12.315531 -1309.0725)
(-20.717245 9.2425661 -1301.868)
(-20.636078 9.2333059 -1301.8969)
(-20.83297 9.2536383 -1301.8278)
(-21.494736 9.3120317 -1301.5995)
(-21.229929 9.2902107 -1301.6902)
(-21.911324 9.3386965 -1301.4598)
(-25.260025 -12.362067 -1309.177)
(-27.943996 -11.76865 -1308.1072)
(-18.30463 8.9173946 -1302.7457)
(-18.423307 8.9364033 -1302.7013)
(-15.689539 8.3636551 -1303.7782)
(-15.536343 8.3212891 -1303.8427)
(-15.977108 8.4371262 -1303.6595)
(-16.384457 8.5378017 -1303.4929)
(-22.07819 9.349412 -1301.4038)
(-22.441872 9.3660154 -1301.2847)
(-23.201578 9.3791151 -1301.0443)
(-27.492641 -11.890585 -1308.2959)
(-27.917561 -11.775531 -1308.118)
(-27.035324 -12.006555 -1308.4843)
(-19.71636 9.1260719 -1302.2247)
(-19.256573 9.0621576 -1302.3928)
(-20.049488 9.1670227 -1302.1051)
(-22.554924 9.3710661 -1301.2476)
(-20.157373 9.1809158 -1302.0662)
(-26.197563 -12.19161 -1308.8181)
(-26.444723 -12.141061 -1308.7212)
(-11.066062 6.5621223 -1305.9354)
(-10.843005 6.452405 -1306.0487)
(-11.237864 6.6433573 -1305.8495)
(-24.734486 -12.442786 -1309.3721)
(-24.81278 -12.432014 -1309.3435)
(-25.118275 -12.383693 -1309.2295)
(-26.600317 -12.107213 -1308.6594)
(-26.9673 -12.022226 -1308.5116)
(-29.574131 -11.243744 -1307.391)
(-11.927032 6.9629154 -1305.5074)
(-19.199932 9.0548172 -1302.4132)
(-19.148581 9.0476055 -1302.432)
(-18.725857 8.9844761 -1302.5883)
(-10.183786 6.1199999 -1306.3868)
(-10.449357 6.2564359 -1306.2496)
(-10.643786 6.3544478 -1306.1499)
(-16.429346 8.5480309 -1303.475)
(-27.016098 -12.011011 -1308.4919)
)

// edges

339
(
(2 3)
(1 0)
(5 4)
(6 7)
(8 6)
(9 10)
(11 9)
(12 0)
(13 12)
(14 8)
(15 14)
(16 13)
(10 16)
(17 11)
(18 17)
(19 20)
(21 19)
(22 15)
(23 22)
(24 25)
(26 24)
(27 28)
(25 27)
(29 30)
(20 29)
(31 21)
(32 31)
(33 26)
(34 33)
(35 34)
(36 23)
(37 36)
(38 37)
(28 38)
(39 40)
(41 39)
(42 43)
(44 42)
(45 46)
(47 45)
(48 18)
(49 48)
(50 51)
(52 50)
(53 54)
(43 53)
(55 56)
(57 55)
(58 59)
(30 58)
(60 61)
(51 60)
(61 62)
(63 64)
(46 63)
(65 49)
(66 65)
(67 68)
(69 67)
(70 71)
(72 70)
(73 74)
(75 73)
(76 66)
(77 76)
(78 79)
(59 78)
(79 80)
(80 81)
(81 82)
(83 84)
(1 83)
(84 85)
(86 75)
(87 86)
(88 52)
(54 89)
(90 91)
(71 90)
(85 92)
(92 93)
(82 35)
(94 95)
(96 94)
(97 87)
(98 97)
(99 100)
(64 99)
(101 102)
(103 101)
(104 103)
(105 98)
(106 105)
(107 108)
(109 107)
(110 77)
(111 110)
(112 113)
(114 112)
(115 114)
(116 117)
(102 116)
(118 109)
(119 118)
(108 88)
(120 119)
(121 122)
(123 121)
(124 41)
(62 124)
(125 106)
(126 125)
(127 128)
(129 127)
(130 131)
(132 130)
(133 72)
(122 133)
(134 135)
(136 134)
(137 138)
(139 137)
(140 126)
(138 140)
(141 104)
(74 141)
(95 47)
(142 44)
(143 142)
(40 143)
(144 145)
(131 144)
(145 146)
(147 148)
(68 147)
(149 115)
(56 149)
(150 151)
(152 150)
(153 111)
(113 153)
(154 155)
(128 154)
(156 157)
(100 156)
(157 158)
(159 160)
(161 159)
(162 163)
(164 162)
(165 166)
(7 165)
(167 57)
(168 167)
(169 168)
(170 171)
(117 170)
(172 139)
(173 172)
(174 175)
(176 174)
(177 2)
(3 177)
(178 179)
(180 178)
(181 173)
(182 183)
(184 182)
(183 185)
(185 186)
(186 187)
(188 184)
(189 188)
(190 189)
(191 190)
(192 191)
(193 192)
(194 193)
(195 194)
(196 195)
(197 196)
(198 197)
(199 161)
(171 199)
(200 201)
(202 200)
(203 204)
(135 203)
(205 123)
(206 205)
(207 208)
(209 207)
(210 211)
(166 210)
(211 212)
(213 214)
(215 213)
(216 176)
(187 216)
(212 217)
(217 69)
(163 218)
(219 164)
(220 221)
(201 220)
(148 222)
(175 223)
(223 224)
(224 225)
(225 226)
(226 227)
(227 228)
(228 229)
(230 231)
(232 230)
(233 234)
(204 233)
(235 236)
(237 235)
(238 237)
(239 240)
(241 239)
(242 132)
(243 242)
(244 169)
(179 244)
(234 241)
(245 246)
(240 245)
(246 247)
(247 129)
(248 136)
(249 248)
(250 249)
(160 250)
(251 252)
(214 251)
(89 180)
(253 254)
(155 253)
(146 181)
(229 255)
(255 256)
(256 257)
(257 258)
(258 259)
(259 4)
(260 120)
(261 260)
(262 261)
(263 264)
(158 263)
(264 265)
(265 219)
(93 266)
(266 267)
(268 3)
(269 268)
(270 1)
(0 270)
(271 243)
(221 271)
(272 273)
(274 272)
(208 262)
(275 276)
(277 275)
(91 32)
(278 277)
(279 278)
(280 281)
(252 280)
(282 283)
(276 282)
(284 285)
(151 284)
(285 238)
(283 286)
(287 5)
(4 287)
(288 289)
(290 288)
(291 292)
(293 291)
(294 295)
(296 294)
(295 293)
(297 290)
(298 269)
(299 279)
(300 299)
(301 302)
(303 301)
(302 152)
(304 303)
(305 296)
(306 305)
(307 232)
(5 307)
(218 209)
(267 198)
(308 309)
(310 308)
(311 312)
(313 311)
(314 306)
(231 314)
(292 315)
(316 317)
(289 316)
(318 319)
(320 318)
(273 320)
(321 322)
(254 321)
(322 323)
(323 297)
(317 324)
(324 325)
(326 96)
(2 326)
(222 202)
(236 215)
(281 327)
(328 329)
(312 328)
(330 300)
(329 330)
(331 206)
(332 331)
(333 332)
(319 333)
(315 313)
(327 274)
(334 304)
(286 334)
(325 335)
(309 298)
(335 310)
)

// concaveStart mixedStart nonFeatureStart
0 0 6
// internalStart flatStart openStart multipleStart
0 3 3 339
// normals

224
(
(-0.27712262 0.35976035 -0.89094082)
(-0.27803984 0.36101832 -0.89014584)
(-0.27624713 0.35990702 -0.89115345)
(-0.27896796 0.35980939 -0.89034492)
(-0.27471863 0.35893587 -0.89201722)
(-0.27823835 0.36036251 -0.89034953)
(-0.27862735 0.35715429 -0.89151983)
(-0.27128451 0.35943463 -0.89286699)
(-0.28079808 0.35851663 -0.89029111)
(-0.28481578 0.35742933 -0.88945166)
(-0.27418453 0.36079047 -0.89143316)
(-0.27750731 0.35814527 -0.89147162)
(-0.27295773 0.36024609 -0.89202961)
(-0.27757284 0.35913504 -0.89105294)
(-0.27515042 0.35978938 -0.89154016)
(-0.27620403 0.35958826 -0.89129547)
(-0.2756942 0.35955966 -0.89146484)
(-0.31942058 0.34043712 -0.88434895)
(-0.27230393 0.36050567 -0.89212456)
(-0.2793773 0.35376952 -0.892634)
(-0.27439465 0.35909619 -0.89205241)
(-0.27780421 0.35847053 -0.89124839)
(-0.29870224 0.3536618 -0.88639738)
(-0.28087223 0.35946223 -0.88988634)
(-0.27547432 0.35982721 -0.89142486)
(-0.28281703 0.35572959 -0.89076988)
(-0.27261212 0.36111233 -0.89178502)
(-0.27840554 0.35544618 -0.89227147)
(-0.27552764 0.35943849 -0.89156519)
(-0.27606521 0.35967851 -0.89130206)
(-0.28249666 0.36329293 -0.88781411)
(-0.28494053 0.3483975 -0.89298829)
(-0.29434296 0.40698609 -0.86471067)
(-0.23792067 0.35189471 -0.90529767)
(-0.28078613 0.35692872 -0.89093268)
(-0.27600773 0.35945994 -0.89140804)
(-0.27648483 0.3591222 -0.89139631)
(-0.27615027 0.35935195 -0.89140743)
(-0.27745822 0.36102032 -0.89032649)
(-0.27507415 0.35884693 -0.89194344)
(-0.27474342 0.35698604 -0.8927917)
(-0.27597086 0.35948336 -0.89141001)
(-0.27962698 0.35868316 -0.89059258)
(-0.27691129 0.35846372 -0.89152897)
(-0.27723606 0.3609421 -0.89042741)
(-0.27523755 0.3589484 -0.89185219)
(-0.2757824 0.35956636 -0.89143485)
(-0.28092807 0.34987645 -0.89368109)
(-0.26789967 0.34198547 -0.90070845)
(-0.27754994 0.35709381 -0.89188006)
(-0.27396928 0.35111723 -0.8953533)
(-0.27695184 0.36370426 -0.8893913)
(-0.27553147 0.35916583 -0.89167388)
(-0.27850953 0.35784879 -0.89127812)
(-0.27434245 0.35939224 -0.89194924)
(-0.27674693 0.35946382 -0.89117725)
(-0.28102348 0.35968307 -0.88974934)
(-0.27707904 0.36548636 -0.8886208)
(-0.27428455 0.36069535 -0.89144088)
(-0.27529067 0.35982267 -0.89148342)
(-0.27532637 0.35986694 -0.89145453)
(-0.28181096 0.35128059 -0.89285191)
(-0.27150079 0.36142025 -0.89199928)
(-0.27642834 0.36040945 -0.89089416)
(-0.27454716 0.3656071 -0.88935668)
(-0.2812569 0.36436067 -0.88777016)
(-0.27169125 0.36476436 -0.89057893)
(-0.27590801 0.36516935 -0.88911536)
(-0.27877983 0.3637144 -0.88881586)
(-0.27544154 0.35904141 -0.89175177)
(-0.27578921 0.35954503 -0.89144135)
(-0.27641174 0.35847092 -0.89168108)
(-0.26131357 0.36420697 -0.89390632)
(-0.27940476 0.35856857 -0.89070846)
(-0.2824088 0.36600942 -0.88672565)
(-0.27421883 0.35808279 -0.89251372)
(-0.27301744 0.35804647 -0.89289653)
(-0.262825 0.35978619 -0.89525243)
(-0.27249949 0.36770246 -0.88912256)
(-0.27297015 0.35945943 -0.8923431)
(-0.28467781 0.31569201 -0.90515032)
(-0.28214765 0.35136646 -0.89271177)
(-0.27610628 0.3591415 -0.89150586)
(-0.27660427 0.36560784 -0.88871873)
(-0.29445322 0.34014032 -0.89308559)
(-0.18644114 0.33941726 -0.92197377)
(-0.30354029 0.35720837 -0.88332637)
(-0.26780819 0.36010764 -0.89364493)
(-0.27544567 0.35604027 -0.89295297)
(-0.27080008 0.35290697 -0.89561375)
(-0.27707898 0.36585465 -0.88846925)
(0.048775394 0.85104653 -0.52282001)
(-0.26653121 0.36108694 -0.89363154)
(-0.27619264 0.36017092 -0.89106371)
(-0.28451716 0.38648021 -0.87731581)
(-0.27521586 0.35733301 -0.89250734)
(-0.27350916 0.35178054 -0.8952336)
(-0.27570543 0.3592714 -0.89157758)
(-0.27664719 0.36270926 -0.88989231)
(-0.27505252 0.35708679 -0.89265623)
(-0.27599552 0.36027843 -0.89108132)
(-0.27593853 0.36009482 -0.89117319)
(-0.27485302 0.35674525 -0.89285421)
(-0.27542685 0.35844473 -0.89199632)
(-0.27659398 0.36175902 -0.89029556)
(-0.27493642 0.35723253 -0.89263368)
(-0.27623435 0.36065131 -0.89085645)
(-0.27582142 0.35962489 -0.89139917)
(-0.27564419 0.35919791 -0.89162612)
(-0.27510576 0.35542053 -0.89330458)
(-0.274659 0.3587687 -0.89210283)
(-0.27547464 0.37113926 -0.8867747)
(-0.27267829 0.36339014 -0.89083902)
(-0.27653859 0.35867599 -0.89155928)
(-0.26039674 0.3733672 -0.89038782)
(-0.27588482 0.35959625 -0.8913911)
(-0.27749549 0.36008282 -0.89069445)
(-0.26612226 0.37785148 -0.88679603)
(-0.27902858 0.37522929 -0.8839378)
(-0.2778344 0.36019503 -0.89054342)
(-0.27513524 0.3592773 -0.89175132)
(-0.27834957 0.35711043 -0.89162417)
(-0.27082804 0.364655 -0.89088658)
(-0.28445553 0.36581139 -0.88615296)
(-0.27668997 0.35994599 -0.89100031)
(-0.27529623 0.35824431 -0.89211715)
(-0.27592739 0.35983741 -0.8912806)
(-0.27583688 0.35959564 -0.89140619)
(-0.27583382 0.35958706 -0.89141059)
(-0.2755097 0.35862628 -0.89189775)
(-0.27595575 0.36001357 -0.89120068)
(-0.27574142 0.35931726 -0.89154797)
(-0.27876795 0.33703146 -0.8992765)
(-0.27641296 0.34713485 -0.89615471)
(-0.27983489 0.35150585 -0.89338461)
(-0.27340939 0.36434703 -0.89022387)
(-0.27785209 0.33725956 -0.89947441)
(-0.2865101 0.36815043 -0.8845209)
(-0.23361677 0.36394181 -0.90164825)
(-0.27579569 0.36004442 -0.89123776)
(-0.27548097 0.36195867 -0.89055946)
(-0.27532798 0.36321115 -0.89009672)
(-0.2752468 0.36383459 -0.88986718)
(-0.24577335 0.049933448 -0.96804035)
(-0.27647393 0.36888444 -0.88740432)
(-0.25739091 0.3931346 -0.88272028)
(-0.27468511 0.35990203 -0.89163817)
(-0.27767659 0.3521929 -0.89378738)
(-0.27407307 0.35693494 -0.89301814)
(-0.2758802 0.35978275 -0.89131728)
(-0.2759145 0.35990046 -0.89125914)
(-0.27557348 0.35861699 -0.89188178)
(-0.27579566 0.35947929 -0.89146587)
(-0.27604372 0.36051916 -0.89096902)
(-0.27572367 0.35913024 -0.89162881)
(-0.27500457 0.36005014 -0.89147988)
(-0.27649318 0.3591841 -0.89136878)
(-0.27663348 0.35910133 -0.8913586)
(-0.28570688 0.34748039 -0.89310076)
(-0.27827244 0.35679084 -0.89177617)
(-0.27620822 0.3590281 -0.89151996)
(-0.27464535 0.35832423 -0.89228565)
(-0.27616124 0.35994178 -0.89116602)
(-0.27289819 0.36607586 -0.88967131)
(0.60512008 -0.51499581 -0.60713178)
(-0.31466477 0.38790176 -0.8663246)
(-0.2790956 0.35355884 -0.89280557)
(-0.29267453 0.34416822 -0.89212659)
(-0.28171098 0.34053923 -0.89703509)
(-0.27449921 0.36003096 -0.89164336)
(-0.2794345 0.34711201 -0.89522601)
(-0.27773633 0.35639655 -0.89210091)
(-0.27651807 0.35729302 -0.89212076)
(-0.27898327 0.35227031 -0.89334985)
(-0.27399846 0.36349286 -0.89039193)
(-0.27598578 0.35892745 -0.89162937)
(-0.42449187 -0.14149729 -0.89430709)
(-0.28466649 0.32978391 -0.9001153)
(-0.28122292 0.3339233 -0.89967155)
(-0.27682353 0.35391001 -0.89337363)
(-0.27537794 0.36163399 -0.89072321)
(-0.27933171 0.34779637 -0.89499245)
(-0.28143532 0.34636817 -0.89488728)
(-0.28091638 0.3421547 -0.89666947)
(-0.28125575 0.34518365 -0.89540128)
(-0.27406199 0.36416971 -0.89009575)
(-0.2755668 0.36013799 -0.89127076)
(-0.27082491 0.38833568 -0.88082306)
(-0.27755118 0.3385494 -0.89908267)
(-0.27704962 0.35878827 -0.89135542)
(-0.27577425 0.3593727 -0.89151546)
(-0.27997711 0.34867145 -0.89445013)
(-0.27603092 0.35905082 -0.89156572)
(-0.26201511 0.44126012 -0.85827594)
(-0.27551614 0.36135015 -0.89079567)
(-0.27265302 0.36986734 -0.88817705)
(-0.27671538 0.35812529 -0.89172578)
(-0.27451629 0.36182377 -0.8909121)
(-0.275383 0.36101482 -0.89097278)
(-0.27513071 0.3620359 -0.89063635)
(-0.27638823 0.35553117 -0.89286457)
(-0.27599134 0.35862441 -0.89174958)
(-0.27583251 0.35950877 -0.89144258)
(-0.2845833 0.34080652 -0.89602637)
(-0.27558902 0.35963878 -0.89146545)
(-0.28493033 0.34227554 -0.89535589)
(-0.27566255 0.35993181 -0.89132444)
(-0.24139677 0.47984756 -0.84348914)
(-0.27669457 0.35672197 -0.89229454)
(-0.27564317 0.36014702 -0.89124349)
(-0.27475972 0.35939059 -0.89182145)
(-0.27582542 0.35956834 -0.89142075)
(-0.27595601 0.35958777 -0.89137249)
(-0.2759712 0.35958984 -0.89136695)
(-0.27650685 0.35541615 -0.89287363)
(-0.27598308 0.35961566 -0.89135286)
(-0.27459156 0.35948009 -0.89183717)
(-0.27653041 0.35961382 -0.89118395)
(-0.27522729 0.36269344 -0.89033893)
(-0.25122566 0.41527884 -0.87431639)
(-0.27353948 0.35947698 -0.89216168)
(-0.28023989 0.36018347 -0.88979406)
(-0.26592049 0.33270788 -0.90476061)
(-0.35868521 0.60560326 -0.71034472)
)

// normal volume types

224
(
0
0
0
0
0
0
0
0
0
0
0
0
0
0
0
0
0
0
0
0
0
0
0
0
0
0
0
0
0
0
0
0
0
0
0
0
0
0
0
0
0
0
0
0
0
0
0
0
0
0
0
0
0
0
0
0
0
0
0
0
0
0
0
0
0
0
0
0
0
0
0
0
0
0
0
0
0
0
0
0
0
0
0
0
0
0
0
0
0
0
0
0
0
0
0
0
0
0
0
0
0
0
0
0
0
0
0
0
0
0
0
0
0
0
0
0
0
0
0
0
0
0
0
0
0
0
0
0
0
0
0
0
0
0
0
0
0
0
0
0
0
0
0
0
0
0
0
0
0
0
0
0
0
0
0
0
0
0
0
0
0
0
0
0
0
0
0
0
0
0
0
0
0
0
0
0
0
0
0
0
0
0
0
0
0
0
0
0
0
0
0
0
0
0
0
0
0
0
0
0
0
0
0
0
0
0
0
0
0
0
0
0
0
0
0
0
0
0
0
0
0
0
0
0
)

// normalDirections

339
(
2(1 -1)
2(1 -1)
2(1 -1)
1(1)
1(1)
1(1)
1(1)
1(1)
1(1)
1(1)
1(1)
1(1)
1(1)
1(1)
1(1)
1(1)
1(1)
1(1)
1(1)
1(1)
1(1)
1(1)
1(1)
1(1)
1(1)
1(1)
1(1)
1(1)
1(1)
1(1)
1(1)
1(1)
1(1)
1(1)
1(1)
1(1)
1(1)
1(1)
1(1)
1(1)
1(1)
1(1)
1(1)
1(1)
1(1)
1(1)
1(1)
1(1)
1(1)
1(1)
1(1)
1(1)
1(1)
1(1)
1(1)
1(1)
1(1)
1(1)
1(1)
1(1)
1(1)
1(1)
1(1)
1(1)
1(1)
1(1)
1(1)
1(1)
1(1)
1(1)
1(1)
1(1)
1(1)
1(1)
1(1)
1(1)
1(1)
1(1)
1(1)
1(1)
1(1)
1(1)
1(1)
1(1)
1(1)
1(1)
1(1)
1(1)
1(1)
1(1)
1(1)
1(1)
1(1)
1(1)
1(1)
1(1)
1(1)
1(1)
1(1)
1(1)
1(1)
1(1)
1(1)
1(1)
1(1)
1(1)
1(1)
1(1)
1(1)
1(1)
1(1)
1(1)
1(1)
1(1)
1(1)
1(1)
1(1)
1(1)
1(1)
1(1)
1(1)
1(1)
1(1)
1(1)
1(1)
1(1)
1(1)
1(1)
1(1)
1(1)
1(1)
1(1)
1(1)
1(1)
1(1)
1(1)
1(1)
1(1)
1(1)
1(1)
1(1)
1(1)
1(1)
1(1)
1(1)
1(1)
1(1)
1(1)
1(1)
1(1)
1(1)
1(1)
1(1)
1(1)
1(1)
1(1)
1(1)
1(1)
1(1)
1(1)
1(1)
1(1)
1(1)
1(1)
1(1)
1(1)
1(1)
1(1)
1(1)
1(1)
1(1)
1(1)
1(1)
1(1)
1(1)
1(1)
1(1)
1(1)
1(1)
1(1)
1(1)
1(1)
1(1)
1(1)
1(1)
1(1)
1(1)
1(1)
1(1)
1(1)
1(1)
1(1)
1(1)
1(1)
1(1)
1(1)
1(1)
1(1)
1(1)
1(1)
1(1)
1(1)
1(1)
1(1)
1(1)
1(1)
1(1)
1(1)
1(1)
1(1)
1(1)
1(1)
1(1)
1(1)
1(1)
1(1)
1(1)
1(1)
1(1)
1(1)
1(1)
1(1)
1(1)
1(1)
1(1)
1(1)
1(1)
1(1)
1(1)
1(1)
1(1)
1(1)
1(1)
1(1)
1(1)
1(1)
1(1)
1(1)
1(1)
1(1)
1(1)
1(1)
1(1)
1(1)
1(1)
1(1)
1(1)
1(1)
1(1)
1(1)
1(1)
1(1)
1(1)
1(1)
1(1)
1(1)
1(1)
1(1)
1(1)
1(1)
1(1)
1(1)
1(1)
1(1)
1(1)
1(1)
1(1)
1(1)
1(1)
1(1)
1(1)
1(1)
1(1)
1(1)
1(1)
1(1)
1(1)
1(1)
1(1)
1(1)
1(1)
1(1)
1(1)
1(1)
1(1)
1(1)
1(1)
1(1)
1(1)
1(1)
1(1)
1(1)
1(1)
1(1)
1(1)
1(1)
1(1)
1(1)
1(1)
1(1)
1(1)
1(1)
1(1)
1(1)
1(1)
1(1)
1(1)
1(1)
1(1)
1(1)
1(1)
1(1)
1(1)
1(1)
1(1)
1(1)
1(1)
1(1)
1(1)
1(1)
1(1)
1(1)
1(1)
1(1)
1(1)
1(1)
1(1)
1(1)
1(1)
1(1)
1(1)
1(1)
1(1)
1(1)
1(1)
1(1)
1(1)
1(1)
1(1)
)

// edgeNormals

339
(
2(91 221)
2(164 222)
2(176 223)
1(0)
1(0)
1(1)
1(1)
1(2)
1(2)
1(3)
1(3)
1(4)
1(4)
1(5)
1(5)
1(6)
1(6)
1(7)
1(7)
1(8)
1(8)
1(9)
1(9)
1(10)
1(10)
1(11)
1(11)
1(12)
1(12)
1(13)
1(14)
1(14)
1(15)
1(16)
1(17)
1(17)
1(18)
1(18)
1(19)
1(19)
1(20)
1(20)
1(21)
1(21)
1(22)
1(22)
1(23)
1(23)
1(24)
1(24)
1(25)
1(25)
1(26)
1(27)
1(27)
1(28)
1(29)
1(30)
1(30)
1(31)
1(31)
1(32)
1(32)
1(33)
1(33)
1(34)
1(34)
1(35)
1(36)
1(37)
1(38)
1(38)
1(39)
1(40)
1(40)
1(41)
1(42)
1(43)
1(43)
1(44)
1(45)
1(46)
1(47)
1(47)
1(48)
1(48)
1(49)
1(49)
1(50)
1(50)
1(51)
1(52)
1(52)
1(53)
1(53)
1(54)
1(54)
1(55)
1(55)
1(56)
1(57)
1(57)
1(58)
1(58)
1(59)
1(60)
1(61)
1(61)
1(62)
1(62)
1(63)
1(63)
1(64)
1(64)
1(65)
1(65)
1(66)
1(66)
1(67)
1(67)
1(68)
1(68)
1(69)
1(69)
1(70)
1(70)
1(71)
1(72)
1(72)
1(73)
1(74)
1(74)
1(75)
1(76)
1(76)
1(77)
1(77)
1(78)
1(78)
1(79)
1(79)
1(80)
1(80)
1(81)
1(81)
1(82)
1(83)
1(83)
1(84)
1(84)
1(85)
1(85)
1(86)
1(86)
1(87)
1(88)
1(88)
1(89)
1(89)
1(90)
1(90)
1(91)
1(91)
1(92)
1(92)
1(93)
1(94)
1(94)
1(95)
1(96)
1(97)
1(98)
1(99)
1(100)
1(101)
1(102)
1(103)
1(104)
1(105)
1(106)
1(107)
1(108)
1(109)
1(109)
1(110)
1(110)
1(111)
1(111)
1(112)
1(113)
1(114)
1(114)
1(115)
1(115)
1(116)
1(117)
1(117)
1(118)
1(118)
1(119)
1(120)
1(121)
1(122)
1(123)
1(123)
1(124)
1(125)
1(126)
1(127)
1(128)
1(129)
1(130)
1(131)
1(132)
1(132)
1(133)
1(133)
1(134)
1(134)
1(135)
1(136)
1(136)
1(137)
1(137)
1(138)
1(138)
1(139)
1(140)
1(140)
1(141)
1(142)
1(143)
1(143)
1(144)
1(144)
1(145)
1(145)
1(146)
1(147)
1(147)
1(148)
1(149)
1(150)
1(151)
1(152)
1(153)
1(154)
1(155)
1(156)
1(157)
1(158)
1(158)
1(159)
1(160)
1(161)
1(162)
1(163)
1(163)
1(164)
1(164)
1(165)
1(165)
1(166)
1(166)
1(167)
1(168)
1(168)
1(169)
1(170)
1(170)
1(171)
1(171)
1(172)
1(172)
1(173)
1(173)
1(174)
1(175)
1(176)
1(176)
1(177)
1(177)
1(178)
1(178)
1(179)
1(179)
1(180)
1(181)
1(182)
1(183)
1(183)
1(184)
1(184)
1(185)
1(186)
1(187)
1(187)
1(188)
1(188)
1(189)
1(190)
1(191)
1(191)
1(192)
1(192)
1(193)
1(193)
1(194)
1(195)
1(195)
1(196)
1(196)
1(197)
1(198)
1(198)
1(199)
1(200)
1(201)
1(202)
1(203)
1(203)
1(204)
1(205)
1(206)
1(207)
1(207)
1(208)
1(209)
1(210)
1(211)
1(212)
1(213)
1(214)
1(215)
1(216)
1(217)
1(218)
1(219)
1(220)
)

// featurePointNormals

6
(
3(164 222 2)
3(164 222 38)
3(91 221 203)
3(91 221 163)
3(176 223 154)
3(176 223 188)
)

// featurePointEdges

6
(
3(1 7 259)
3(1 71 258)
3(0 161 320)
3(0 162 256)
3(2 246 279)
3(2 278 298)
)

// regionEdges

336
(
3
4
5
6
7
8
9
10
11
12
13
14
15
16
17
18
19
20
21
22
23
24
25
26
27
28
29
30
31
32
33
34
35
36
37
38
39
40
41
42
43
44
45
46
47
48
49
50
51
52
53
54
55
56
57
58
59
60
61
62
63
64
65
66
67
68
69
70
71
72
73
74
75
76
77
78
79
80
81
82
83
84
85
86
87
88
89
90
91
92
93
94
95
96
97
98
99
100
101
102
103
104
105
106
107
108
109
110
111
112
113
114
115
116
117
118
119
120
121
122
123
124
125
126
127
128
129
130
131
132
133
134
135
136
137
138
139
140
141
142
143
144
145
146
147
148
149
150
151
152
153
154
155
156
157
158
159
160
161
162
163
164
165
166
167
168
169
170
171
172
173
174
175
176
177
178
179
180
181
182
183
184
185
186
187
188
189
190
191
192
193
194
195
196
197
198
199
200
201
202
203
204
205
206
207
208
209
210
211
212
213
214
215
216
217
218
219
220
221
222
223
224
225
226
227
228
229
230
231
232
233
234
235
236
237
238
239
240
241
242
243
244
245
246
247
248
249
250
251
252
253
254
255
256
257
258
259
260
261
262
263
264
265
266
267
268
269
270
271
272
273
274
275
276
277
278
279
280
281
282
283
284
285
286
287
288
289
290
291
292
293
294
295
296
297
298
299
300
301
302
303
304
305
306
307
308
309
310
311
312
313
314
315
316
317
318
319
320
321
322
323
324
325
326
327
328
329
330
331
332
333
334
335
336
337
338
)



// ************************************************************************* //
