/*--------------------------------*- C++ -*----------------------------------*\
  =========                 |
  \\      /  F ield         | OpenFOAM: The Open Source CFD Toolbox
   \\    /   O peration     | Website:  https://openfoam.org
    \\  /    A nd           | Version:  8
     \\/     M anipulation  |
\*---------------------------------------------------------------------------*/
FoamFile
{
    version     2.0;
    format      ascii;
    class       extendedFeatureEdgeMesh;
    location    "constant/extendedFeatureEdgeMesh";
    object      aortaWall.extendedFeatureEdgeMesh;
}
// * * * * * * * * * * * * * * * * * * * * * * * * * * * * * * * * * * * * * //

// points

223
(
(235.1994781494141 229.8432312011719 1199.275024414062)
(234.6593322753906 229.0924072265625 1199.275024414062)
(236.0345611572266 231.1538543701172 1199.2763671875)
(235.4122924804688 230.1775360107422 1199.275024414062)
(219.4089660644531 242.9333190917969 1199.276245117188)
(219.9770965576172 243.6115112304688 1199.275024414062)
(220.5555114746094 244.2269287109375 1199.275024414062)
(221.1942596435547 244.8116760253906 1199.275024414062)
(255.7659912109375 244.2852172851562 1199.275024414062)
(256.1325988769531 244.7625732421875 1199.275024414062)
(256.9239501953125 245.4989013671875 1199.275024414062)
(257.8834838867188 246.1457824707031 1199.275024414062)
(258.3213500976562 246.3703308105469 1199.275024414062)
(224.3088836669922 224.5078277587891 1199.275268554688)
(224.1342926025391 224.5364532470703 1199.275024414062)
(222.8949279785156 224.8216094970703 1199.275024414062)
(225.3655090332031 224.3450012207031 1199.275024414062)
(226.0078582763672 224.2833862304688 1199.275024414062)
(227.1017913818359 224.2441101074219 1199.275024414062)
(228.1588439941406 224.3031616210938 1199.275024414062)
(229.1421508789062 224.4227294921875 1199.275024414062)
(230.2445526123047 224.6305236816406 1199.275024414062)
(230.9534149169922 224.8733367919922 1199.275024414062)
(231.8705444335938 225.4193267822266 1199.275024414062)
(232.4245758056641 225.9397735595703 1199.275024414062)
(233.111572265625 226.8157043457031 1199.275512695312)
(262.3755187988281 226.7584075927734 1199.275024414062)
(261.1229858398438 226.6068115234375 1199.275024414062)
(263.2122497558594 226.9245300292969 1199.275024414062)
(263.9988403320312 227.1423797607422 1199.275024414062)
(265.2096252441406 227.4817810058594 1199.275024414062)
(233.5743865966797 227.4840850830078 1199.275024414062)
(234.2687225341797 228.5001068115234 1199.275024414062)
(266.1125183105469 227.9135131835938 1199.275024414062)
(267.2070007324219 228.5197906494141 1199.275024414062)
(268.2040405273438 229.2329864501953 1199.275024414062)
(218.0149841308594 229.1252593994141 1199.275024414062)
(217.5675201416016 230.2609100341797 1199.275024414062)
(269.0977172851562 230.1501770019531 1199.275024414062)
(217.2167358398438 231.3943786621094 1199.275024414062)
(253.5135192871094 230.5113677978516 1199.275024414062)
(253.2948455810547 231.0155792236328 1199.275024414062)
(270.1278686523438 231.5206146240234 1199.275024414062)
(269.5359191894531 230.7154388427734 1199.275024414062)
(216.8929138183594 232.4555358886719 1199.275024414062)
(236.693603515625 232.0981292724609 1199.275024414062)
(236.9725341796875 232.4962768554688 1199.275024414062)
(270.683837890625 232.3905639648438 1199.277587890625)
(237.3336181640625 232.9612884521484 1199.275024414062)
(237.8905334472656 234.0809478759766 1199.275024414062)
(271.2159423828125 233.4066467285156 1199.275024414062)
(216.6871032714844 233.5532531738281 1199.275024414062)
(271.4490051269531 234.1292419433594 1199.275024414062)
(216.6494293212891 234.0597534179688 1199.275024414062)
(216.6463165283203 235.0353240966797 1199.278076171875)
(238.0892639160156 234.8459625244141 1199.275024414062)
(252.4314575195312 233.6387634277344 1199.275024414062)
(252.3082885742188 234.7347106933594 1199.275024414062)
(271.78515625 235.1671600341797 1199.275024414062)
(216.6600036621094 235.9774169921875 1199.275024414062)
(238.2029876708984 235.7313842773438 1199.275024414062)
(252.2920532226562 235.7496337890625 1199.275024414062)
(216.8297424316406 237.1445465087891 1199.275024414062)
(238.2577819824219 236.5325775146484 1199.275024414062)
(252.3341827392578 236.4828491210938 1199.275024414062)
(252.4977264404297 237.7337036132812 1199.275024414062)
(217.0617065429688 238.2120666503906 1199.275024414062)
(238.2757263183594 237.3706970214844 1199.275024414062)
(217.2605590820312 239.0187377929688 1199.275024414062)
(238.2373962402344 238.2249298095703 1199.275024414062)
(252.6507873535156 238.4926605224609 1199.275024414062)
(252.9385986328125 239.2286987304688 1199.275024414062)
(217.5522308349609 239.9150390625 1199.275024414062)
(238.1421661376953 239.0936279296875 1199.275024414062)
(253.52587890625 240.3813781738281 1199.275024414062)
(238.0380554199219 239.7605895996094 1199.275024414062)
(253.9164733886719 241.1496734619141 1199.275024414062)
(218.0849609375 240.9715728759766 1199.275024414062)
(218.6794128417969 241.9390563964844 1199.275024414062)
(237.7816162109375 240.3658447265625 1199.275024414062)
(237.4114990234375 241.3807067871094 1199.278076171875)
(254.2591247558594 241.8529510498047 1199.275024414062)
(236.984375 242.4670867919922 1199.275024414062)
(254.7450714111328 242.6584625244141 1199.275146484375)
(255.3942718505859 243.7555541992188 1199.275024414062)
(222.0971221923828 245.5119018554688 1199.275024414062)
(235.3619689941406 245.0936584472656 1199.275024414062)
(236.0047760009766 244.2785034179688 1199.275024414062)
(222.9187622070312 246.0016937255859 1199.276000976562)
(223.7509155273438 246.4863128662109 1199.275024414062)
(234.5915222167969 245.9299926757812 1199.275024414062)
(268.2296142578125 245.7158508300781 1199.275024414062)
(269.1968994140625 245.2196044921875 1199.275024414062)
(270.2467041015625 244.6025848388672 1199.275024414062)
(224.6461791992188 246.8446960449219 1199.275024414062)
(259.2586975097656 246.8198547363281 1199.275024414062)
(260.3199462890625 247.178466796875 1199.275024414062)
(264.7115783691406 246.7940521240234 1199.275024414062)
(265.5326232910156 246.5486297607422 1199.275024414062)
(266.5258483886719 246.2597198486328 1199.275634765625)
(267.4385986328125 246.02978515625 1199.275024414062)
(225.8041687011719 247.0852355957031 1199.275024414062)
(222.0090789794922 225.1946105957031 1199.27734375)
(221.0044250488281 225.7414855957031 1199.275512695312)
(220.1412811279297 226.3630676269531 1199.275146484375)
(219.5450592041016 226.890869140625 1199.275024414062)
(257.9326782226562 227.0120391845703 1199.275024414062)
(257.0060119628906 227.3491821289062 1199.276733398438)
(259.0222778320312 226.7590026855469 1199.275024414062)
(259.9982299804688 226.612548828125 1199.275024414062)
(255.9846954345703 227.8638916015625 1199.275024414062)
(255.5133209228516 228.1764526367188 1199.275024414062)
(218.9199523925781 227.6810913085938 1199.275024414062)
(218.3021697998047 228.5743408203125 1199.276000976562)
(254.8735656738281 228.7113037109375 1199.275024414062)
(254.1004028320312 229.5796966552734 1199.275024414062)
(252.9256439208984 232.0100402832031 1199.275024414062)
(252.6957702636719 232.7074584960938 1199.275024414062)
(272.0502624511719 235.968994140625 1199.275024414062)
(272.2626037597656 237.012451171875 1199.275024414062)
(272.4158630371094 238.0861511230469 1199.275024414062)
(272.4748840332031 238.61669921875 1199.275024414062)
(272.5313720703125 239.4043121337891 1199.275024414062)
(272.5096740722656 240.4435729980469 1199.275024414062)
(272.388916015625 241.4054565429688 1199.275024414062)
(236.44384765625 243.4453582763672 1199.275024414062)
(271.5062255859375 243.3570556640625 1199.275024414062)
(272.008056640625 242.4925384521484 1199.278198242188)
(270.8546447753906 244.0926666259766 1199.275634765625)
(233.6435546875 246.5205993652344 1199.275024414062)
(263.9244689941406 247.0544586181641 1199.275024414062)
(227.0763397216797 247.2194213867188 1199.275024414062)
(228.2034149169922 247.2460784912109 1199.275024414062)
(229.193603515625 247.2183532714844 1199.275024414062)
(231.5046997070312 247.0260620117188 1199.275024414062)
(232.4642181396484 246.8611297607422 1199.275024414062)
(261.2159423828125 247.2668304443359 1199.275512695312)
(262.3663330078125 247.2490539550781 1199.275024414062)
(263.1223754882812 247.1751098632812 1199.275024414062)
(257.6904907226562 240.7898559570312 1355.712768554688)
(257.7539367675781 241.7286682128906 1355.712768554688)
(257.69384765625 242.6944580078125 1355.712524414062)
(257.4341430664062 243.8399810791016 1355.712768554688)
(257.1967163085938 244.6125793457031 1355.712768554688)
(256.8822021484375 245.2958221435547 1355.712768554688)
(231.5494384765625 248.2998352050781 1355.712768554688)
(231.2113647460938 247.2724609375 1355.712768554688)
(239.3856506347656 227.0265502929688 1355.712768554688)
(240.6478271484375 226.7659606933594 1355.712768554688)
(241.8595275878906 226.6771240234375 1355.712768554688)
(242.8265228271484 226.6695556640625 1355.712768554688)
(243.7655639648438 226.7154388427734 1355.712768554688)
(238.42236328125 227.4191589355469 1355.712768554688)
(245.7066650390625 227.0595397949219 1355.712768554688)
(246.8709564208984 227.4007873535156 1355.712646484375)
(237.3567504882812 228.1662902832031 1355.712768554688)
(247.6990203857422 227.7110137939453 1355.712768554688)
(248.6235656738281 228.18994140625 1355.7119140625)
(249.6740112304688 228.8650360107422 1355.712768554688)
(236.5695953369141 229.0329895019531 1355.712768554688)
(250.2470397949219 229.2739410400391 1355.712768554688)
(235.9669036865234 229.8719787597656 1355.712768554688)
(235.2353820800781 230.9356994628906 1355.712768554688)
(235.0044708251953 231.2557220458984 1355.712768554688)
(234.5697174072266 231.9289398193359 1355.712768554688)
(233.985107421875 232.8294982910156 1355.712768554688)
(233.3204498291016 233.8404083251953 1355.712768554688)
(232.7832641601562 234.6705322265625 1355.712768554688)
(232.1212463378906 235.80029296875 1355.712768554688)
(255.7830352783203 235.281494140625 1355.712646484375)
(256.3877868652344 236.3392028808594 1355.712768554688)
(231.9436798095703 236.0858612060547 1355.712768554688)
(256.822998046875 237.4421539306641 1355.712768554688)
(231.1005401611328 237.9891204833984 1355.712768554688)
(231.3876647949219 237.2091217041016 1355.712768554688)
(257.254638671875 238.6479187011719 1355.712646484375)
(230.6553344726562 239.6454467773438 1355.712768554688)
(230.896240234375 238.6602783203125 1355.712768554688)
(257.4904479980469 239.6234130859375 1355.712768554688)
(230.5469360351562 240.3010559082031 1355.712768554688)
(230.4807586669922 241.4173736572266 1355.712768554688)
(230.5384674072266 243.7384948730469 1355.712768554688)
(230.4951629638672 242.6895751953125 1355.712768554688)
(230.6171264648438 244.8171234130859 1355.712768554688)
(230.835205078125 246.0673522949219 1355.712768554688)
(256.3772888183594 246.3657073974609 1355.710693359375)
(255.8805999755859 247.5073699951172 1355.712768554688)
(231.9840850830078 249.3876037597656 1355.712768554688)
(232.6186218261719 250.4710083007812 1355.711791992188)
(255.2576293945312 248.3738250732422 1355.712524414062)
(254.5397338867188 249.4264984130859 1355.712768554688)
(253.8408813476562 250.3885192871094 1355.712768554688)
(233.0678558349609 251.1492614746094 1355.712768554688)
(253.3491058349609 250.9389038085938 1355.712768554688)
(233.9565734863281 251.878173828125 1355.712768554688)
(234.7542572021484 252.1983947753906 1355.712768554688)
(252.8136291503906 251.5260009765625 1355.712768554688)
(237.2259063720703 252.8994293212891 1355.712768554688)
(235.9998016357422 252.5464019775391 1355.712768554688)
(237.5282440185547 252.9862365722656 1355.712768554688)
(252.0662384033203 252.1728515625 1355.71240234375)
(251.2120971679688 252.9221649169922 1355.711791992188)
(239.4841918945312 253.6806640625 1355.712768554688)
(238.6767272949219 253.4277496337891 1355.712768554688)
(240.5665588378906 254.0850219726562 1355.712646484375)
(250.4275665283203 253.4961853027344 1355.712768554688)
(241.3780517578125 254.3379516601562 1355.712768554688)
(242.3412322998047 254.6083221435547 1355.712768554688)
(243.6254730224609 254.9432678222656 1355.712768554688)
(244.8388977050781 255.0472259521484 1355.712768554688)
(246.1277465820312 254.8972015380859 1355.712768554688)
(247.118408203125 254.6531066894531 1355.712768554688)
(248.2286682128906 254.3621978759766 1355.712768554688)
(249.4441223144531 254.0152893066406 1355.712768554688)
(244.5869750976562 226.8252410888672 1355.712768554688)
(251.1527557373047 229.9544982910156 1355.712768554688)
(252.0473022460938 230.7461242675781 1355.712768554688)
(252.7920684814453 231.5120544433594 1355.712768554688)
(253.5048675537109 232.2991333007812 1355.712768554688)
(253.9930267333984 232.8345794677734 1355.712768554688)
(254.6479644775391 233.6941833496094 1355.712768554688)
(255.2673492431641 234.5315856933594 1355.712768554688)
(230.4685363769531 247.1392669677734 1199.275024414062)
)

// edges

223
(
(0 1)
(2 3)
(4 5)
(5 6)
(6 7)
(8 9)
(9 10)
(10 11)
(11 12)
(13 14)
(14 15)
(16 13)
(17 16)
(18 17)
(19 18)
(20 19)
(21 20)
(22 21)
(23 22)
(24 23)
(25 24)
(26 27)
(28 26)
(29 28)
(30 29)
(31 25)
(32 31)
(33 30)
(34 33)
(1 32)
(35 34)
(36 37)
(3 0)
(38 35)
(37 39)
(40 41)
(42 43)
(39 44)
(45 2)
(46 45)
(47 42)
(48 46)
(49 48)
(50 47)
(44 51)
(52 50)
(53 54)
(51 53)
(55 49)
(56 57)
(58 52)
(54 59)
(60 55)
(57 61)
(59 62)
(63 60)
(61 64)
(64 65)
(62 66)
(67 63)
(66 68)
(69 67)
(65 70)
(70 71)
(68 72)
(73 69)
(71 74)
(75 73)
(74 76)
(77 78)
(79 75)
(80 79)
(76 81)
(78 4)
(82 80)
(83 84)
(84 8)
(7 85)
(86 87)
(85 88)
(88 89)
(90 86)
(91 92)
(92 93)
(89 94)
(12 95)
(95 96)
(97 98)
(98 99)
(100 91)
(99 100)
(94 101)
(15 102)
(103 104)
(102 103)
(104 105)
(106 107)
(108 106)
(109 108)
(110 111)
(107 110)
(112 113)
(111 114)
(113 36)
(114 115)
(115 40)
(41 116)
(116 117)
(117 56)
(118 58)
(119 118)
(120 119)
(121 120)
(122 121)
(123 122)
(81 83)
(124 123)
(125 82)
(126 127)
(87 125)
(128 126)
(93 128)
(129 90)
(130 97)
(101 131)
(131 132)
(132 133)
(134 135)
(135 129)
(96 136)
(137 138)
(138 130)
(139 140)
(141 142)
(142 143)
(143 144)
(145 146)
(147 148)
(148 149)
(149 150)
(150 151)
(152 147)
(153 154)
(155 152)
(156 157)
(157 158)
(159 155)
(158 160)
(161 159)
(162 161)
(163 162)
(164 163)
(165 164)
(166 165)
(167 166)
(168 167)
(169 170)
(171 168)
(170 172)
(173 174)
(172 175)
(176 177)
(177 173)
(175 178)
(179 176)
(180 179)
(181 182)
(183 181)
(184 183)
(146 184)
(144 185)
(185 186)
(187 145)
(188 187)
(189 190)
(186 189)
(190 191)
(192 188)
(191 193)
(194 192)
(195 194)
(193 196)
(197 198)
(199 197)
(200 201)
(196 200)
(202 203)
(204 202)
(201 205)
(206 204)
(207 206)
(208 207)
(209 208)
(210 209)
(211 210)
(212 211)
(213 212)
(151 214)
(214 153)
(154 156)
(160 215)
(215 216)
(216 217)
(218 219)
(219 220)
(220 221)
(221 169)
(72 77)
(198 195)
(133 222)
(178 139)
(140 141)
(205 213)
(27 109)
(222 134)
(136 137)
(174 171)
(43 38)
(203 199)
(182 180)
(127 124)
(217 218)
(105 112)
)

// concaveStart mixedStart nonFeatureStart
0 0 0
// internalStart flatStart openStart multipleStart
0 0 0 223
// normals

223
(
(-0.7770896922542587 0.5590415399770049 0.2891438513479412)
(-0.808409032506106 0.5148571866031908 0.2853014433289617)
(0.7475142669443036 -0.6258017103423962 0.2226985407389378)
(0.7260625984374033 -0.6824073916236896 0.08457691770027018)
(0.6750493303878961 -0.7373894895717269 0.02377271991172449)
(0.7638074828896113 -0.5866014123483506 0.2692525062330089)
(0.6470886833443639 -0.6954433292358546 0.3124656968516836)
(0.5376337520676554 -0.7974845701047893 0.2738034132045)
(0.4450961882632123 -0.8679315179669164 0.2204183824303304)
(0.1184737194303361 0.7283446460573312 0.6748911426029851)
(0.1722345325097025 0.7485769174890605 0.6402873295745751)
(0.1076423559865196 0.6974579984656962 0.7084952106922786)
(0.06807806786529418 0.7097281879458368 0.7011784907645466)
(0.02595717130412126 0.722968735483707 0.6903929553312218)
(-0.041319152798166 0.7396341886545089 0.6717395288245498)
(-0.09433401930123278 0.7757877580155746 0.6239025944132968)
(-0.1575007584770025 0.8355821190841531 0.5263041262863184)
(-0.2829980635813326 0.8261772162216042 0.4871789234003631)
(-0.4839439034860531 0.8129072807285569 0.3240062518180554)
(-0.6361802381271893 0.6772331495883698 0.3696349086802404)
(-0.7444579370671034 0.5837010153807087 0.3241535200816465)
(-0.08114915919168217 0.6704791023058302 0.7374771775001929)
(-0.1355701942935943 0.6828444175882741 0.7178747967352858)
(-0.188826610600975 0.6817967203530336 0.7067515427961903)
(-0.2106541634309199 0.751490710256867 0.625209193651892)
(-0.7713410814723604 0.5343608417774099 0.3456753199289578)
(-0.7677104798576153 0.5246432835046545 0.3679266831724016)
(-0.3502753700410819 0.7325402628144094 0.5836882117178479)
(-0.4149792538134068 0.7491413162239963 0.5163133808363353)
(-0.7901362225736659 0.5210783203664187 0.3227415898534467)
(-0.5159102096301937 0.7212367333687659 0.4622274656907366)
(0.6770924008509248 0.2667849226742452 0.6858364861565965)
(-0.8097526191583739 0.5154785603816624 0.2803257918083924)
(-0.6522943102971821 0.6355715976889544 0.4129901657001453)
(0.6921214543505235 0.2141967894950956 0.6892660065589408)
(0.5834269112312926 0.2530290238728863 0.7717443568494996)
(-0.7565821871831107 0.5562244043659338 0.3437990779873946)
(0.6696590075101958 0.2043526897702372 0.7140005545124798)
(-0.8084733389367322 0.5644984385571529 0.1664703369823825)
(-0.812793952767794 0.5694199002259331 0.1229917378151621)
(-0.7969332704200179 0.5083443994097394 0.3263178421208465)
(-0.7897530914595606 0.6132474866710105 -0.01475041090124756)
(-0.8880980994481812 0.4417373658815955 0.1270821204596382)
(-0.8447445432133061 0.443134741282095 0.3000637561922363)
(0.7259064952484388 0.136099900026563 0.674193278940756)
(-0.933935299872457 0.3012274636846843 0.1924236751915833)
(0.8170532335697905 0.0008034179109390617 0.5765616775617418)
(0.8087994609989382 0.06015924170652463 0.584999399593814)
(-0.9493431814308781 0.246614121488666 0.1947536879062171)
(0.6585835769244375 0.0740154632564889 0.7488587205904335)
(-0.9297167700031593 0.3011078996658326 0.2120395254044002)
(0.8221538978617025 -0.0101008553926585 0.5691756679190932)
(-0.9653649910415002 0.1239916810835008 0.2295571760880755)
(0.6691842089789558 0.01070469372393194 0.7430194506104708)
(0.8343958058441044 -0.1213484153827324 0.537641331441201)
(-0.9336918237956747 0.06385600661340904 0.3523378898110378)
(0.7197408685955098 -0.04135529297827775 0.693009972378509)
(0.740577836153414 -0.09682728173968347 0.6649578528818432)
(0.7912138682173234 -0.1719248327588192 0.5868751712429416)
(-0.934457930417722 0.02000696426477399 0.3555110373256168)
(0.7890128597055064 -0.1944995949699648 0.5827766422703112)
(-0.936647109582051 -0.04202807172302506 0.3477439191399809)
(0.7980314493326219 -0.1609411823369093 0.5807269080248242)
(0.8015753881115129 -0.3134381277973206 0.509149719843572)
(0.8618230431808582 -0.2804519487640808 0.4226200973414703)
(-0.931729518271367 -0.1021398521636999 0.3484932644711861)
(0.7495227439763427 -0.3818753987207312 0.5407280611490923)
(-0.9680955998513077 -0.151116821729249 0.199886507145898)
(0.7842340291950812 -0.3986975964595676 0.4754126776073734)
(0.8022829152231642 -0.492947524820819 0.3366672863734301)
(-0.8796129575143735 -0.372681272726934 0.2956175128970704)
(-0.9081799800761622 -0.3319772048346561 0.2549514841279226)
(0.8228660847201913 -0.4009173529719378 0.4026868295626735)
(0.7840595964661639 -0.5755990909628734 0.2322417612575956)
(-0.912491428013778 -0.3582024199708903 0.1976117914709906)
(0.8117883990300467 -0.4803362020324149 0.3320794004711957)
(0.7900636121760518 -0.5544693378722285 0.261463653448929)
(0.6128057193731637 -0.7901441363109631 -0.01189092750551702)
(-0.785219930891868 -0.6192010787443699 0.004436689303827244)
(0.5102165689110579 -0.8557314902353735 -0.08603876700752133)
(0.4946433730653196 -0.849733830334523 -0.1824290302215721)
(-0.7195499415923778 -0.6628629018588277 -0.2070281500030848)
(-0.4564178602196911 -0.8896513435534917 0.01425565803270874)
(-0.5042119471537774 -0.8578722942893856 -0.09912335263731879)
(0.3608056156082234 -0.9013150712720094 -0.2396882350961427)
(0.4299688067872726 -0.8965710726728497 0.1062409376661589)
(0.3180995796464339 -0.9413592785469099 0.1124960715865371)
(-0.2847598915970276 -0.9526461232935128 0.1066638078801342)
(-0.2768272333648249 -0.9514018056594197 0.1349121456933094)
(-0.3678746263199374 -0.9269281923022047 0.07397557451844093)
(-0.2419849605896151 -0.9609415419613736 0.1342930816585128)
(0.2009840323294649 -0.9675639567040784 -0.1530536129457159)
(0.3059725621049905 0.7228085455317843 0.6196197202681125)
(0.4412870304375663 0.6131679183213378 0.6552029156750386)
(0.3302937924888787 0.6091905576540799 0.7209666255163443)
(0.5060354494971963 0.5717836121638418 0.6457488867300042)
(0.2103081034269023 0.5740384167885236 0.7913598408334256)
(0.1479590491495699 0.6371259592156118 0.7564249016712379)
(0.09858176220702745 0.6569378527569781 0.7474719351087424)
(0.3324417926794903 0.5013567593953727 0.7988265483123463)
(0.2730781463053207 0.5444907883096178 0.7930687911249698)
(0.5751213708063234 0.3969791636161765 0.7152922147601332)
(0.3906775253313821 0.4673039086091766 0.793094022294667)
(0.6537207915294823 0.3419715493749954 0.6750589501222336)
(0.4589169866540451 0.4085910230669021 0.7889541021057647)
(0.5302865920039544 0.3340411232214631 0.7792385118420256)
(0.579541417004886 0.2151594084337106 0.786026828383373)
(0.5879256101223096 0.1937841709292564 0.7853605363522991)
(0.5986110189607005 0.1698912093331136 0.7828165972756097)
(-0.9434596080428036 0.3119310972641853 0.1121737872735016)
(-0.9780921315746547 0.1990396891523294 0.06098347558062262)
(-0.9895379174838164 0.141246039894373 0.02939840260879902)
(-0.9937293797440939 0.1105477492335391 -0.01676648361514088)
(-0.9973611021316444 0.07153129395531216 -0.01241394134956045)
(-0.9954099332529921 -0.02078246524080158 -0.09341923741814957)
(0.7799948448417223 -0.4706155627912827 0.4124670096856011)
(-0.9586719134826492 -0.1203548577572525 -0.2578039381269173)
(-0.8721576672540848 -0.4818959509110416 0.08436406785744677)
(-0.8256305799686382 -0.4803449161371068 -0.295977882555244)
(-0.8826639827667283 -0.4651683321571511 0.06725114336954484)
(-0.7251154879377026 -0.6420777483426841 -0.2488849015831545)
(-0.608149722873834 -0.7254411988815955 -0.3223181371466897)
(-0.510367856881015 -0.8191782534126476 -0.2616708615770655)
(-0.3140011902306993 -0.9491056719125979 0.02452908634744259)
(0.1047421961860379 -0.9930260544255782 -0.05411402378399059)
(0.02351386100657866 -0.9941773493932032 -0.1051593851925171)
(-0.02775575906789678 -0.9912792917958316 -0.1288215179825155)
(-0.1685672361308474 -0.9806655111125986 -0.09939940753079336)
(-0.2723715486830339 -0.9432864912919749 -0.1898007766424585)
(0.09808963452741365 -0.9947731265314902 0.02836988419155908)
(-0.09731093749947049 -0.9949571463524068 0.02430757835016439)
(-0.148356387774717 -0.9862782192697324 0.07242690384493423)
(-0.963136028525297 0.06508987430693015 0.2610216443500928)
(-0.9618934983014743 -0.2181085825990457 0.164892522941421)
(-0.9458599652176497 -0.2906717172355308 0.1444260329643313)
(-0.8992128499844617 -0.4139307069227444 0.1416955196513248)
(0.875268732271813 -0.2880210015181091 -0.3885209762571369)
(0.1649512062017428 0.798947995936044 -0.5783365796509583)
(0.06069102294382891 0.8278038701424689 -0.5577251583989934)
(0.006550221672191837 0.8369096734512365 -0.547301829962033)
(-0.04088067373057234 0.8366603066355678 -0.5461943809815442)
(0.3006029127912684 0.7375461284303449 -0.6047012462851504)
(-0.2447139360524405 0.8347550274391511 -0.4932536200240038)
(0.4337522435514939 0.6186488375267978 -0.6550821376291582)
(-0.4278787410681252 0.8253407252317533 -0.3684188787452127)
(-0.5056319879798584 0.7872089966666836 -0.3530414824047869)
(0.5311832017352345 0.4824321800689356 -0.6964937887937259)
(-0.5429538959139286 0.7608810585548055 -0.3553323537822097)
(0.5817821297963502 0.4179257704549731 -0.6977589869283233)
(0.5970918213087423 0.4106205388650794 -0.6891096647039284)
(0.5806768090108441 0.4189854646813095 -0.6980441417724031)
(0.6022879352188383 0.3889480473765898 -0.6971145239713247)
(0.6181703104386875 0.4012938054497269 -0.675891077763136)
(0.595110335326459 0.3912757708787071 -0.7019593719802472)
(0.598157261260657 0.3870765653122334 -0.7016976723541516)
(0.5967936353949389 0.3497094633339387 -0.7221777122057847)
(-0.8647939522146451 0.4944412500368994 0.08751725815473477)
(0.5799396612542043 0.3606068842113372 -0.7305016525400542)
(-0.9274721336068021 0.3659693177473709 0.07656304493925177)
(0.6161400328058512 0.2268067412126394 -0.7542745933110219)
(-0.9387927571135017 0.336077429607985 0.07563147823042682)
(0.6820028813979727 0.1667719083624186 -0.7120808945239436)
(0.6336992314603801 0.1928975562128687 -0.7491433887138207)
(-0.9536703898351581 0.2305095499836818 0.1933342569695758)
(0.7000507366745756 0.1157464142190612 -0.7046500788879638)
(0.7412148508920781 0.04394057885316834 -0.6698281647908536)
(0.7909483062695559 -0.03265414583795932 -0.6110110339174851)
(0.8046882909698465 -0.0586819468368425 -0.5907903041616928)
(0.8384522728253386 -0.1462520276221363 -0.5249839336688675)
(0.8445193712422464 -0.2636062136273881 -0.4661531891273863)
(-0.9021377930441072 -0.4258818875302881 -0.06907981061892594)
(-0.9050272817369566 -0.3934450733060416 -0.1616372283943872)
(0.8653433463755901 -0.3457707499369976 -0.3627995057487012)
(0.8118096961149238 -0.4757721254155662 -0.3385349346394695)
(-0.8219237108930624 -0.5605068275195424 -0.1013583236629116)
(-0.8084275941806518 -0.5812756060519888 -0.0925391526661907)
(-0.7979348496252942 -0.5796535301098937 -0.1652324447092568)
(0.8177555394327737 -0.5413504974405605 -0.1954878938652497)
(-0.7390758794808306 -0.6603736212860463 -0.1329418093723345)
(0.6156493042372921 -0.7506230359366257 -0.2398770354023523)
(0.3651253566143324 -0.909542469633444 -0.1985345559099276)
(-0.7111954553696592 -0.6486636374697852 -0.2709917151612026)
(0.2554913781859657 -0.8873510633970905 -0.3838388281045684)
(0.2437841110213914 -0.8490663342903585 -0.468674372233263)
(-0.6323945687055869 -0.7210962055118136 -0.2830147908999443)
(-0.6251165149879313 -0.7224458212447882 -0.295468066049932)
(0.2757149233784598 -0.8802583598999297 -0.3861690055567586)
(0.3290556574101559 -0.8809039825718973 -0.3401919279103205)
(-0.5594642228828763 -0.7640898619259581 -0.3211953707886048)
(0.2839745816918685 -0.9109521325977545 -0.2992066995716027)
(0.2602005578866627 -0.9269507204401948 -0.2702924925906626)
(0.241976838244735 -0.9277818146795079 -0.2840213268455043)
(0.0835088320075958 -0.9747354833025159 -0.2071642164268191)
(-0.1127572438727237 -0.9686893166144711 -0.2211940592132083)
(-0.2344685045588696 -0.9515929980608895 -0.1987342104707073)
(-0.2367723588012374 -0.9036470165798918 -0.3568766166813942)
(-0.2573716983116351 -0.9017462063211616 -0.3472946706956181)
(-0.1107418315981982 0.8284400053632859 -0.5490204042182358)
(-0.1724176950478553 0.8239668161909232 -0.5397692324045325)
(-0.3092364300261974 0.8256071152552454 -0.4719594490891822)
(-0.5539164511672924 0.7371767178300257 -0.3869716421336105)
(-0.6337951508394197 0.716195850384753 -0.2921766771391887)
(-0.7041196573771302 0.684663645647469 -0.188284891650472)
(-0.7061882482269995 0.6438224740611032 -0.2946027494099836)
(-0.7835993685025253 0.5970294150149177 -0.1718368624288409)
(-0.7885712795204315 0.5832668618493687 -0.1948206995775834)
(-0.809527686153755 0.5566537514319664 -0.1865516721106145)
(0.8273494417336679 -0.4171697557696675 0.376114737991034)
(0.2557752698667279 -0.9154392830570118 -0.3107248467063206)
(-0.06136411216663101 -0.9892373196933605 -0.1328306104175435)
(-0.9587313980537798 0.1644206036900876 0.2319482085898314)
(-0.9655596552020443 -0.06001079500138116 0.2531664605144439)
(-0.4522482706715253 -0.8567858110832004 -0.2477691982493331)
(0.003369259239945539 0.6605181837629404 0.7508024886817308)
(-0.1078949245212038 -0.9875606880357011 -0.1143790746116458)
(-0.01541637327139275 -0.9988839802438684 0.04464447835202132)
(0.5897129957765046 0.2919084936710415 -0.7530126253490069)
(-0.7293625367948339 0.5654159355290603 0.3851429731541291)
(0.3302406094476205 -0.8590364593500623 -0.391148950374372)
(0.7418609399809323 -0.00839960092764018 -0.67050115021144)
(-0.9213981369266935 -0.3221775523336854 -0.21731796529577)
(-0.708377176107277 0.6415247839299628 -0.2943598613498353)
(0.5821813067402936 0.4605356760876961 0.6700535927316655)
)

// normal volume types

223
(
0
0
0
0
0
0
0
0
0
0
0
0
0
0
0
0
0
0
0
0
0
0
0
0
0
0
0
0
0
0
0
0
0
0
0
0
0
0
0
0
0
0
0
0
0
0
0
0
0
0
0
0
0
0
0
0
0
0
0
0
0
0
0
0
0
0
0
0
0
0
0
0
0
0
0
0
0
0
0
0
0
0
0
0
0
0
0
0
0
0
0
0
0
0
0
0
0
0
0
0
0
0
0
0
0
0
0
0
0
0
0
0
0
0
0
0
0
0
0
0
0
0
0
0
0
0
0
0
0
0
0
0
0
0
0
0
0
0
0
0
0
0
0
0
0
0
0
0
0
0
0
0
0
0
0
0
0
0
0
0
0
0
0
0
0
0
0
0
0
0
0
0
0
0
0
0
0
0
0
0
0
0
0
0
0
0
0
0
0
0
0
0
0
0
0
0
0
0
0
0
0
0
0
0
0
0
0
0
0
0
0
0
0
0
0
0
0
0
0
0
0
0
0
)

// normalDirections

223
(
1(1)
1(1)
1(1)
1(1)
1(1)
1(1)
1(1)
1(1)
1(1)
1(1)
1(1)
1(1)
1(1)
1(1)
1(1)
1(1)
1(1)
1(1)
1(1)
1(1)
1(1)
1(1)
1(1)
1(1)
1(1)
1(1)
1(1)
1(1)
1(1)
1(1)
1(1)
1(1)
1(1)
1(1)
1(1)
1(1)
1(1)
1(1)
1(1)
1(1)
1(1)
1(1)
1(1)
1(1)
1(1)
1(1)
1(1)
1(1)
1(1)
1(1)
1(1)
1(1)
1(1)
1(1)
1(1)
1(1)
1(1)
1(1)
1(1)
1(1)
1(1)
1(1)
1(1)
1(1)
1(1)
1(1)
1(1)
1(1)
1(1)
1(1)
1(1)
1(1)
1(1)
1(1)
1(1)
1(1)
1(1)
1(1)
1(1)
1(1)
1(1)
1(1)
1(1)
1(1)
1(1)
1(1)
1(1)
1(1)
1(1)
1(1)
1(1)
1(1)
1(1)
1(1)
1(1)
1(1)
1(1)
1(1)
1(1)
1(1)
1(1)
1(1)
1(1)
1(1)
1(1)
1(1)
1(1)
1(1)
1(1)
1(1)
1(1)
1(1)
1(1)
1(1)
1(1)
1(1)
1(1)
1(1)
1(1)
1(1)
1(1)
1(1)
1(1)
1(1)
1(1)
1(1)
1(1)
1(1)
1(1)
1(1)
1(1)
1(1)
1(1)
1(1)
1(1)
1(1)
1(1)
1(1)
1(1)
1(1)
1(1)
1(1)
1(1)
1(1)
1(1)
1(1)
1(1)
1(1)
1(1)
1(1)