/*--------------------------------*- C++ -*----------------------------------*\
  =========                 |
  \\      /  F ield         | OpenFOAM: The Open Source CFD Toolbox
   \\    /   O peration     | Website:  https://openfoam.org
    \\  /    A nd           | Version:  8
     \\/     M anipulation  |
\*---------------------------------------------------------------------------*/
FoamFile
{
    version     2.0;
    format      ascii;
    class       extendedFeatureEdgeMesh;
    location    "constant/extendedFeatureEdgeMesh";
    object      outlet_1.extendedFeatureEdgeMesh;
}
// * * * * * * * * * * * * * * * * * * * * * * * * * * * * * * * * * * * * * //

// points

279
(
(-3.0119925 -14.171543 -1316.7908)
(-2.9890411 -14.131972 -1316.7819)
(5.7119946 -7.5492015 -1316.8188)
(6.0984821 -7.4319363 -1316.8911)
(5.208365 -7.7534919 -1316.7455)
(14.242789 -6.1902761 -1318.9103)
(14.470023 -6.2721214 -1319.0135)
(13.956048 -6.1182246 -1318.7925)
(14.701745 -6.3601694 -1319.1208)
(14.940046 -6.4786215 -1319.2423)
(15.132445 -6.5787721 -1319.3423)
(15.368107 -6.7326007 -1319.4772)
(13.763016 -6.072804 -1318.7145)
(13.398136 -6.0233397 -1318.5815)
(15.537395 -6.8475633 -1319.5759)
(15.763604 -7.0345984 -1319.7214)
(15.945916 -7.1924472 -1319.8416)
(16.136248 -7.3850765 -1319.9781)
(16.338148 -7.6048017 -1320.1292)
(14.136165 -23.411575 -1325.8237)
(13.712063 -23.677593 -1325.7998)
(14.3376 -23.261059 -1325.8253)
(14.679796 -23.01475 -1325.8319)
(15.136474 -22.63221 -1325.8188)
(-0.43421867 -24.468807 -1321.7418)
(-0.63990879 -24.360134 -1321.6344)
(-0.093098164 -24.613056 -1321.9056)
(17.298838 -20.135195 -1325.4807)
(17.119177 -20.408094 -1325.5353)
(17.375555 -19.995804 -1325.4482)
(-0.69725448 -24.329674 -1321.6044)
(-0.73376238 -24.306257 -1321.5836)
(-0.81101757 -11.295959 -1316.3119)
(-0.74821365 -11.239104 -1316.3083)
(-0.87819952 -11.364758 -1316.3188)
(-3.0447366 -21.606152 -1319.7794)
(-3.0522344 -21.587137 -1319.7694)
(-3.0308142 -21.634769 -1319.7953)
(13.574252 -23.764242 -1325.7921)
(13.49962 -23.804609 -1325.7853)
(-3.5355275 -15.332123 -1317.0969)
(-3.4553251 -15.099577 -1317.0278)
(-3.5795557 -15.492909 -1317.1481)
(-1.4410797 -23.772696 -1321.1495)
(-1.5220897 -23.697514 -1321.0941)
(-1.2611561 -23.914894 -1321.2626)
(-1.8753619 -23.328213 -1320.8359)
(15.199605 -22.580843 -1325.8176)
(15.331541 -22.458307 -1325.8091)
(13.270228 -6.0079322 -1318.5358)
(12.79091 -5.993979 -1318.3818)
(-3.4350045 -15.039518 -1317.0099)
(-3.425359 -15.016495 -1317.0037)
(12.769837 -5.9936767 -1318.3752)
(12.699825 -5.9983568 -1318.3555)
(0.43276736 -24.800323 -1322.1438)
(-0.024390012 -24.639902 -1321.9377)
(0.83871818 -24.915102 -1322.3158)
(11.755549 -6.0780973 -1318.0955)
(12.117144 -6.0335774 -1318.1893)
(11.363084 -6.1487546 -1318.0026)
(8.4069633 -6.8269682 -1317.3615)
(8.7908678 -6.7536764 -1317.4507)
(8.2116976 -6.8763766 -1317.3209)
(2.3059516 -25.215157 -1322.8907)
(1.9870621 -25.152042 -1322.7666)
(2.5212598 -25.244745 -1322.9694)
(16.145355 -21.650793 -1325.7352)
(15.825936 -21.98473 -1325.771)
(16.340443 -21.424421 -1325.7042)
(-0.036576089 -24.636265 -1321.9325)
(-0.044152133 -24.633532 -1321.929)
(16.560072 -7.8797426 -1320.3087)
(16.622959 -7.9709344 -1320.365)
(16.379982 -7.6556549 -1320.1626)
(12.265167 -6.0173292 -1318.2286)
(16.587368 -21.128159 -1325.6611)
(16.749456 -20.913481 -1325.6246)
(17.04508 -20.516706 -1325.5562)
(-3.6958194 -16.015686 -1317.323)
(-3.6526799 -15.804107 -1317.251)
(-3.7391553 -16.30386 -1317.4258)
(16.776279 -8.1828861 -1320.4979)
(16.915804 -8.4005146 -1320.6289)
(-1.074846 -24.073936 -1321.3844)
(-0.98382473 -24.142139 -1321.4401)
(12.976244 -24.086399 -1325.7371)
(12.703592 -24.216145 -1325.705)
(-3.7513657 -16.388006 -1317.4559)
(-3.7569382 -16.447292 -1317.4781)
(17.036516 -8.6017122 -1320.7474)
(17.243139 -8.9742842 -1320.9615)
(15.692862 -22.120499 -1325.7847)
(-2.8971174 -21.912111 -1319.9485)
(-2.8069298 -22.074997 -1320.0421)
(-3.2754602 -14.679413 -1316.9141)
(-3.6213064 -15.655646 -1317.2008)
(6.6936426 -7.2467542 -1317.0006)
(9.1644144 -25.288914 -1325.0426)
(9.0224895 -25.295116 -1325.0012)
(9.4544754 -25.261284 -1325.1212)
(-1.2563906 -11.740129 -1316.3531)
(-1.4774909 -11.979942 -1316.3815)
(12.433286 -24.340982 -1325.6718)
(12.211198 -24.433571 -1325.6404)
(11.847954 -24.59203 -1325.5919)
(-2.7263181 -22.211796 -1320.1223)
(-2.5963936 -22.407349 -1320.2413)
(-2.4191704 -22.650854 -1320.3944)
(-2.2614105 -22.861059 -1320.528)
(-1.8998058 -23.29944 -1320.8167)
(-3.78368 -16.774546 -1317.6019)
(-3.7952113 -17.074242 -1317.7192)
(11.241202 -6.1718349 -1317.9741)
(11.033383 -6.2209525 -1317.9296)
(11.580317 -24.702866 -1325.5537)
(9.5634089 -25.247595 -1325.1494)
(9.800334 -25.206005 -1325.2059)
(1.7215487 -25.115417 -1322.6697)
(1.3979013 -25.055687 -1322.5455)
(4.9480472 -7.8520756 -1316.7046)
(4.6265655 -7.9889159 -1316.6604)
(17.531834 -9.5710754 -1321.2916)
(17.628078 -9.7962265 -1321.4122)
(17.384613 -9.2695017 -1321.1245)
(2.2083025 -9.1379099 -1316.3756)
(2.2346041 -9.1242456 -1316.3782)
(2.171284 -9.1591492 -1316.3727)
(-2.0851665 -12.731726 -1316.4967)
(-1.8177009 -12.386065 -1316.4401)
(-2.3557463 -13.111157 -1316.566)
(-0.36112094 -10.886781 -1316.286)
(-0.12858367 -10.692043 -1316.2794)
(-3.1712472 -21.28644 -1319.6113)
(-3.2249761 -21.126856 -1319.5304)
(18.61302 -16.626122 -1324.4719)
(18.561316 -16.967535 -1324.5936)
(18.65288 -16.256454 -1324.3352)
(17.624649 -19.569746 -1325.3535)
(17.570929 -19.6597 -1325.3732)
(17.661129 -19.503153 -1325.3379)
(17.819559 -19.19593 -1325.2629)
(17.962086 -18.899662 -1325.1876)
(11.474469 -24.745192 -1325.5381)
(11.15381 -24.856123 -1325.4836)
(10.727394 -6.2817297 -1317.8595)
(10.540189 -6.3252711 -1317.8191)
(10.216847 -6.4026809 -1317.7502)
(9.74475 -6.525825 -1317.6538)
(-3.71929 -18.663073 -1318.3835)
(-3.7562599 -18.226473 -1318.196)
(-3.6584413 -19.148655 -1318.5983)
(2.6619575 -8.8867493 -1316.4147)
(3.0185292 -8.7040787 -1316.4513)
(3.2985346 -8.5694876 -1316.4836)
(3.8175094 -8.3252563 -1316.5457)
(-3.2861407 -20.942564 -1319.4371)
(-3.3906164 -20.572308 -1319.2554)
(9.9048357 -25.187445 -1325.2308)
(10.00099 -25.166941 -1325.2523)
(10.290915 -25.0972 -1325.3138)
(10.511501 -25.040909 -1325.3594)
(10.709707 -24.987053 -1325.399)
(11.030241 -24.894558 -1325.4609)
(8.7052002 -25.328867 -1324.9166)
(8.4364357 -25.349852 -1324.8419)
(0.33972743 -10.319979 -1316.2742)
(0.48093888 -10.21831 -1316.2769)
(0.011439319 -10.575994 -1316.2759)
(-1.8835107 -23.319206 -1320.8297)
(18.693422 -15.708571 -1324.1267)
(18.67012 -16.059454 -1324.261)
(18.702421 -15.405698 -1324.0073)
(17.723278 -10.022481 -1321.533)
(17.831085 -10.309583 -1321.6821)
(18.662155 -16.170259 -1324.3032)
(17.297894 -9.081398 -1321.0217)
(-3.7974737 -17.189947 -1317.7651)
(-3.7919309 -17.522516 -1317.901)
(-3.7735453 -17.974331 -1318.089)
(18.70838 -14.747787 -1323.7438)
(18.709524 -15.044101 -1323.8636)
(18.696873 -14.442352 -1323.6171)
(-3.7678273 -18.088093 -1318.1366)
(6.8769588 -7.2006249 -1317.0387)
(7.5102892 -7.0418935 -1317.1707)
(-3.6356375 -19.33222 -1318.6794)
(-0.031802475 -10.610168 -1316.2764)
(4.4842892 -8.0439262 -1316.6385)
(4.0391297 -8.2360554 -1316.5782)
(-3.5261009 -19.976278 -1318.973)
(-3.5820959 -19.633982 -1318.8176)
(-3.4990087 -20.107693 -1319.0344)
(-3.394166 -20.557865 -1319.2485)
(0.64754671 -10.097305 -1316.2797)
(-3.3918533 -20.567778 -1319.2532)
(18.708706 -15.230194 -1323.9385)
(1.037939 -9.8325768 -1316.2937)
(1.2071173 -9.7266712 -1316.3033)
(0.77476203 -10.007641 -1316.2828)
(1.3858626 -9.6177349 -1316.3147)
(18.319134 -11.797834 -1322.4335)
(18.364117 -11.971514 -1322.5175)
(18.234514 -11.510783 -1322.2915)
(18.545395 -17.06337 -1324.6274)
(18.469023 -17.427004 -1324.7505)
(17.892038 -10.464495 -1321.7634)
(17.932413 -10.577568 -1321.8215)
(18.04797 -10.913513 -1321.9928)
(18.178055 -11.319184 -1322.1968)
(18.174204 -18.396959 -1325.0504)
(18.141586 -18.478754 -1325.0734)
(18.313347 -17.993937 -1324.9309)
(18.032921 -18.735312 -1325.1432)
(18.691891 -14.264307 -1323.5437)
(18.683342 -14.113523 -1323.4802)
(18.660204 -13.782434 -1323.3395)
(18.619057 -13.367285 -1323.1593)
(8.226469 -25.366999 -1324.7839)
(7.899437 -25.390991 -1324.6924)
(7.5014119 -25.411922 -1324.5776)
(18.501272 -12.597094 -1322.8123)
(18.525728 -12.732162 -1322.8743)
(18.467398 -12.436009 -1322.7367)
(18.563135 -12.957585 -1322.9768)
(18.612267 -13.317636 -1323.1372)
(18.206112 -11.413898 -1322.2437)
(18.403851 -12.133092 -1322.5948)
(18.431471 -12.256246 -1322.6531)
(2.7272286 -25.275719 -1323.0455)
(3.1047685 -25.322252 -1323.1812)
(18.457918 -17.480631 -1324.7687)
(18.455112 -17.492002 -1324.7723)
(18.323139 -17.963713 -1324.9218)
(3.538748 -25.362373 -1323.3315)
(3.1555381 -25.327417 -1323.199)
(3.6697733 -25.370333 -1323.3754)
(17.987982 -18.841997 -1325.1724)
(4.0914989 -25.396244 -1323.5162)
(-2.3981876 -13.170379 -1316.5768)
(-2.6846762 -13.611077 -1316.6659)
(1.4940985 -9.5513535 -1316.3214)
(1.5957763 -9.4916182 -1316.3287)
(1.7583942 -9.3967352 -1316.3408)
(7.5750623 -7.023737 -1317.1833)
(0.91052777 -24.93685 -1322.3468)
(18.616995 -13.350211 -1323.1517)
(3.9216156 -8.2824202 -1316.5607)
(-1.7437118 -12.294163 -1316.4259)
(-1.5002651 -12.004783 -1316.3845)
(1.8707367 -9.3300047 -1316.3486)
(7.3431463 -25.418613 -1324.5314)
(0.95689821 -24.950199 -1322.3665)
(1.361497 -25.047474 -1322.5309)
(-3.6227765 -19.411318 -1318.7152)
(17.077906 -20.468943 -1325.547)
(11.114504 -24.868748 -1325.4766)
(3.1376739 -25.32579 -1323.1927)
(18.318857 -17.977209 -1324.9259)
(-3.2559667 -14.640381 -1316.9043)
(4.1467433 -25.397953 -1323.5341)
(4.2152677 -25.400185 -1323.5562)
(4.6764336 -25.4153 -1323.705)
(5.1390681 -25.427383 -1323.853)
(7.2636838 -25.422594 -1324.5084)
(6.7939963 -25.435825 -1324.3684)
(6.1689715 -25.435219 -1324.1748)
(5.7520814 -25.430948 -1324.0441)
(6.3365602 -25.434753 -1324.2264)
(9.7142515 -6.5325203 -1317.6471)
(9.6945314 -6.5370774 -1317.6428)
(9.2249346 -6.6489468 -1317.5427)
(8.9484758 -6.714911 -1317.4838)
(-3.0105042 -14.168818 -1316.79)
(-2.7054346 -13.64425 -1316.6729)
(5.1990423 -25.42841 -1323.8719)
(5.2570662 -25.429647 -1323.8904)
(6.780561 -25.435884 -1324.3643)
(7.5592318 -7.0281501 -1317.1803)
)

// edges

280
(
(1 0)
(2 3)
(4 2)
(5 6)
(7 5)
(8 9)
(6 8)
(10 11)
(9 10)
(12 7)
(13 12)
(14 15)
(11 14)
(15 16)
(16 17)
(17 18)
(19 20)
(21 19)
(22 21)
(23 22)
(24 25)
(26 24)
(27 28)
(29 27)
(30 31)
(25 30)
(32 33)
(34 32)
(35 36)
(37 35)
(38 39)
(20 38)
(40 41)
(42 40)
(43 44)
(45 43)
(44 46)
(47 23)
(48 47)
(49 13)
(50 49)
(51 52)
(41 51)
(53 50)
(54 53)
(55 56)
(57 55)
(58 59)
(60 58)
(61 62)
(63 61)
(64 65)
(66 64)
(67 68)
(69 67)
(70 71)
(56 70)
(71 26)
(72 73)
(74 72)
(75 54)
(59 75)
(76 69)
(77 76)
(78 77)
(79 80)
(81 79)
(82 83)
(73 82)
(84 45)
(85 84)
(31 85)
(86 87)
(39 86)
(88 81)
(89 88)
(83 90)
(90 91)
(92 48)
(93 37)
(94 93)
(52 95)
(96 42)
(80 96)
(3 97)
(98 99)
(100 98)
(101 34)
(102 101)
(87 103)
(103 104)
(104 105)
(106 94)
(107 106)
(108 107)
(109 108)
(110 109)
(111 89)
(112 111)
(113 60)
(114 113)
(105 115)
(116 100)
(117 116)
(118 119)
(65 118)
(120 4)
(121 120)
(122 123)
(124 122)
(125 126)
(127 125)
(128 129)
(130 128)
(131 132)
(33 131)
(133 134)
(36 133)
(135 136)
(137 135)
(138 139)
(140 138)
(141 140)
(142 141)
(139 29)
(143 144)
(115 143)
(145 114)
(146 145)
(147 146)
(148 147)
(149 150)
(151 149)
(68 92)
(152 153)
(126 152)
(153 154)
(154 155)
(156 157)
(134 156)
(158 117)
(159 158)
(160 159)
(161 160)
(162 161)
(163 162)
(99 164)
(164 165)
(166 167)
(168 166)
(169 110)
(46 169)
(170 171)
(172 170)
(173 174)
(123 173)
(175 137)
(171 175)
(176 124)
(91 176)
(177 112)
(178 177)
(179 178)
(180 181)
(182 180)
(183 179)
(150 183)
(97 184)
(184 185)
(186 151)
(187 168)
(132 187)
(188 121)
(189 188)
(190 191)
(192 190)
(193 192)
(167 194)
(195 193)
(157 195)
(196 172)
(181 196)
(197 198)
(199 197)
(194 199)
(198 200)
(201 202)
(203 201)
(204 205)
(136 204)
(206 207)
(174 206)
(207 208)
(208 209)
(210 211)
(212 210)
(211 213)
(214 182)
(215 214)
(216 215)
(217 216)
(165 218)
(218 219)
(219 220)
(221 222)
(223 221)
(222 224)
(224 225)
(18 74)
(209 226)
(226 203)
(202 227)
(227 228)
(228 223)
(229 66)
(230 229)
(231 232)
(205 231)
(232 233)
(234 235)
(236 234)
(237 142)
(213 237)
(238 236)
(239 130)
(240 239)
(241 242)
(200 241)
(242 243)
(244 63)
(245 57)
(246 217)
(225 246)
(155 247)
(247 189)
(129 248)
(248 249)
(243 250)
(250 127)
(220 251)
(252 245)
(253 252)
(254 186)
(191 254)
(28 255)
(256 163)
(257 230)
(235 257)
(119 253)
(258 212)
(233 258)
(95 259)
(259 0)
(255 78)
(260 238)
(261 260)
(262 261)
(263 262)
(264 265)
(251 264)
(266 267)
(268 266)
(269 148)
(270 269)
(271 270)
(272 271)
(62 272)
(273 1)
(0 273)
(1 274)
(275 263)
(276 275)
(267 276)
(277 268)
(274 240)
(144 256)
(249 102)
(185 278)
(278 244)
(265 277)
)

// concaveStart mixedStart nonFeatureStart
0 0 2
// internalStart flatStart openStart multipleStart
1 1 1 280
// normals

192
(
(-0.2758998 0.36013078 -0.89117065)
(-0.27659242 0.35757166 -0.89198606)
(-0.27816717 0.35540638 -0.89236166)
(-0.2782846 0.35594119 -0.89211185)
(-0.2769341 0.3558865 -0.89255381)
(-0.27451636 0.36126573 -0.89113851)
(-0.27567665 0.35987791 -0.89134184)
(-0.2758687 0.35954163 -0.89141813)
(-0.27630575 0.35882156 -0.89157289)
(-0.27634593 0.36043868 -0.8909079)
(-0.27733881 0.36148252 -0.89017614)
(-0.27820446 0.35547831 -0.89232138)
(-0.27291163 0.35819512 -0.89286925)
(-0.27435922 0.36183121 -0.89095746)
(-0.27127429 0.35535876 -0.89450009)
(-0.2716907 0.36223806 -0.89160964)
(-0.27752107 0.36241518 -0.88974002)
(-0.264666 0.3573927 -0.89566867)
(-0.27421325 0.3614431 -0.89115991)
(-0.27739619 0.35795121 -0.89158414)
(-0.2702836 0.35346878 -0.89554821)
(-0.275939 0.35866973 -0.89174755)
(-0.30901641 0.36673595 -0.87750419)
(-0.27673252 0.336557 -0.9000825)
(-0.27815782 0.35416516 -0.89285792)
(-0.27568812 0.35893817 -0.89171713)
(-0.27565337 0.35748143 -0.89231286)
(-0.2767603 0.35673675 -0.89226825)
(-0.28014666 0.36314379 -0.8886194)
(-0.21540268 0.49397115 -0.84237414)
(-0.30613702 0.29780983 -0.90420652)
(-0.27323781 0.36164101 -0.8913792)
(-0.27613691 0.35467167 -0.89328406)
(-0.27868508 0.36167663 -0.88967671)
(-0.27426659 0.35836871 -0.89238428)
(-0.27149892 0.3592862 -0.89286156)
(-0.27454503 0.36050462 -0.89143785)
(-0.27400955 0.36162891 -0.89114718)
(-0.27525195 0.36024988 -0.89132283)
(-0.27795078 0.36414431 -0.88889948)
(-0.28535353 0.35972224 -0.88835425)
(-0.27559265 0.35979789 -0.89140011)
(-0.27818251 0.35796058 -0.89133535)
(-0.27543898 0.35905801 -0.89174588)
(-0.27905149 0.35773528 -0.89115416)
(-0.26746749 0.35685465 -0.89505078)
(-0.27654403 0.35971853 -0.89113746)
(-0.27576379 0.35953489 -0.89145331)
(-0.27641498 0.36196613 -0.89026697)
(-0.27588965 0.35595988 -0.89284795)
(-0.27791171 0.36133481 -0.89005744)
(-0.27518501 0.35859988 -0.8920086)
(-0.27582748 0.35957303 -0.89141822)
(-0.27573193 0.35942361 -0.89150803)
(-0.26546108 0.36639412 -0.89178796)
(-0.27625157 0.35930633 -0.89139443)
(-0.27410127 0.3606679 -0.89150836)
(-0.27579749 0.35955877 -0.89143325)
(-0.27656374 0.35966635 -0.89115241)
(-0.27567084 0.35955528 -0.89147383)
(-0.27611154 0.35976752 -0.89125179)
(-0.27657123 0.36079271 -0.89069466)
(-0.27598313 0.36245477 -0.89020214)
(-0.27694813 0.35510955 -0.89285886)
(-0.27944939 0.37046282 -0.88581338)
(-0.27144527 0.36172195 -0.89189388)
(-0.25040743 0.3099272 -0.91719204)
(-0.27713402 0.3603895 -0.89068296)
(-0.27604853 0.35980018 -0.89125812)
(-0.27986754 0.35761516 -0.89094644)
(-0.27352043 0.35945742 -0.89217539)
(-0.28925568 0.36599388 -0.88452226)
(-0.27441753 0.35913609 -0.89202931)
(-0.26885669 0.35678106 -0.89466382)
(-0.27753102 0.36025646 -0.89061317)
(-0.27725605 0.36531038 -0.88863795)
(-0.27561735 0.36010697 -0.89126766)
(-0.27595893 0.35914377 -0.89155057)
(-0.27586413 0.35942308 -0.89146735)
(-0.27585796 0.35944266 -0.89146136)
(-0.27922526 0.35885077 -0.8906511)
(-0.27643836 0.36065522 -0.89079158)
(-0.27401823 0.35575505 -0.89350565)
(-0.2755191 0.35885137 -0.89180431)
(-0.274902 0.3575309 -0.89252481)
(-0.27170552 0.36123115 -0.89201355)
(-0.27701594 0.36983171 -0.88684084)
(-0.27588985 0.36110232 -0.8907805)
(-0.27583142 0.35998525 -0.89125061)
(-0.27561238 0.35680823 -0.89259493)
(-0.2758136 0.35926284 -0.89154757)
(-0.27590807 0.36020742 -0.89113711)
(-0.27585474 0.3595875 -0.89140394)
(-0.27642758 0.36040909 -0.89089454)
(-0.33657138 0.31008297 -0.88913906)
(-0.27881159 0.35932998 -0.89058748)
(-0.27611212 0.35945419 -0.89137802)
(-0.25441438 0.36037168 -0.89744391)
(-0.27407279 0.36076615 -0.89147736)
(-0.27323455 0.35931161 -0.89232172)
(-0.27594692 0.35955873 -0.89138702)
(-0.27633411 0.3595839 -0.89125691)
(-0.27184344 0.35999742 -0.89247017)
(-0.2957096 0.35609182 -0.88642792)
(-0.27553174 0.35855439 -0.89191985)
(-0.27591311 0.3599743 -0.89122975)
(-0.27748058 0.35951802 -0.89092722)
(-0.25108202 0.33070312 -0.90972153)
(-0.27583474 0.35928202 -0.8915333)
(-0.27745186 0.35914705 -0.89108578)
(-0.27834795 0.35890635 -0.89090328)
(-0.27730741 0.36115774 -0.89031775)
(-0.37425887 0.31998225 -0.87036869)
(-0.27842053 0.35937585 -0.89069131)
(-0.27492202 0.3579161 -0.89236424)
(-0.27847312 0.36362998 -0.88894654)
(-0.27555895 0.35922326 -0.89164226)
(-0.27437945 0.36010262 -0.89165129)
(-0.2915837 0.36098312 -0.88581608)
(-0.2680204 0.36290514 -0.89244883)
(-0.27579186 0.35958267 -0.89142535)
(-0.27473912 0.36017088 -0.89151296)
(-0.26679188 0.35749909 -0.89499525)
(-0.27857419 0.36028643 -0.8902753)
(-0.27688309 0.35945029 -0.89114042)
(-0.2764607 0.35954671 -0.89123265)
(-0.27554439 0.35960014 -0.89149483)
(-0.27563637 0.35664623 -0.89265226)
(-0.27589115 0.36047981 -0.8910322)
(-0.27586453 0.35999701 -0.89123561)
(-0.30208726 0.35203212 -0.88589879)
(-0.27756084 0.35923937 -0.89101462)
(-0.28102024 0.35828244 -0.89031529)
(-0.27586986 0.3594005 -0.89147468)
(-0.27590478 0.35945601 -0.89144149)
(-0.27594889 0.35939131 -0.89145392)
(-0.27617141 0.35909783 -0.89150328)
(-0.27578798 0.35961194 -0.89141474)
(-0.27585576 0.3595224 -0.89142989)
(-0.27826224 0.34965645 -0.89460074)
(-0.36893269 0.3661446 -0.85429901)
(-0.26446471 0.35767663 -0.89561479)
(-0.27992627 0.33840102 -0.89840193)
(-0.28242427 0.36191189 -0.88840099)
(-0.27500149 0.36339035 -0.8901245)
(-0.27827067 0.36088563 -0.89012752)
(-0.26918601 0.34808922 -0.89798262)
(-0.27643361 0.36029766 -0.89093774)
(-0.27606865 0.36113457 -0.89071203)
(-0.27623915 0.35895301 -0.89154061)
(-0.099799546 0.39312691 -0.91405212)
(-0.27855627 0.36570449 -0.88806905)
(-0.273594 0.35444016 -0.89415798)
(-0.27695559 0.36022803 -0.89080377)
(-0.27592777 0.35959811 -0.89137706)
(-0.27498767 0.3585048 -0.89210767)
(-0.27554471 0.35920301 -0.89165482)
(-0.27582403 0.35904125 -0.89163361)
(-0.28611085 0.33035308 -0.8994484)
(-0.27069377 0.35974868 -0.8929198)
(-0.27608428 0.35954658 -0.89134939)
(-0.27980636 0.36110257 -0.88955794)
(-0.27592312 0.36170044 -0.8905275)
(-0.30286048 0.22149602 -0.92693853)
(-0.26802034 0.38620125 -0.88261752)
(-0.51837457 0.39733051 -0.75724254)
(-0.27349538 0.35977844 -0.89205367)
(-0.27618978 0.35954902 -0.89131572)
(-0.27187843 0.35806127 -0.89323807)
(-0.27654078 0.35859492 -0.89159121)
(-0.27570241 0.35972939 -0.89139382)
(-0.27585204 0.35952565 -0.89142973)
(-0.27593152 0.35941256 -0.89145073)
(-0.27448286 0.37538016 -0.88529594)
(-0.27406296 0.37371744 -0.88612909)
(-0.26433934 0.27809735 -0.92346444)
(-0.2756934 0.35966446 -0.89142281)
(-0.27589258 0.35950584 -0.89142517)
(-0.27558939 0.35975426 -0.89141873)
(-0.6770569 0.51178879 -0.52883474)
(-0.27573069 0.35957846 -0.89144597)
(-0.27497748 0.36082678 -0.89117418)
(-0.27546485 0.36010077 -0.89131731)
(-0.27581282 0.35957943 -0.89142017)
(-0.27577581 0.35963955 -0.89140737)
(-0.27582191 0.35957722 -0.89141825)
(-0.27611989 0.35986956 -0.891208)
(-0.27214843 0.35918512 -0.89270448)
(-0.27668537 0.36018832 -0.8909038)
(-0.27233654 0.35979933 -0.89239971)
(-0.27686562 0.35949149 -0.89112923)
(-0.27378285 0.35967162 -0.89200856)
)

// normal volume types

192
(
0
0
0
0
0
0
0
0
0
0
0
0
0
0
0
0
0
0
0
0
0
0
0
0
0
0
0
0
0
0
0
0
0
0
0
0
0
0
0
0
0
0
0
0
0
0
0
0
0
0
0
0
0
0
0
0
0
0
0
0
0
0
0
0
0
0
0
0
0
0
0
0
0
0
0
0
0
0
0
0
0
0
0
0
0
0
0
0
0
0
0
0
0
0
0
0
0
0
0
0
0
0
0
0
0
0
0
0
0
0
0
0
0
0
0
0
0
0
0
0
0
0
0
0
0
0
0
0
0
0
0
0
0
0
0
0
0
0
0
0
0
0
0
0
0
0
0
0
0
0
0
0
0
0
0
0
0
0
0
0
0
0
0
0
0
0
0
0
0
0
0
0
0
0
0
0
0
0
0
0
0
0
0
0
0
0
0
0
0
0
0
0
)

// normalDirections

280
(
2(1 -1)
1(1)
1(1)
1(1)
1(1)
1(1)
1(1)
1(1)
1(1)
1(1)
1(1)
1(1)
1(1)
1(1)
1(1)
1(1)
1(1)
1(1)
1(1)
1(1)
1(1)
1(1)
1(1)
1(1)
1(1)
1(1)
1(1)
1(1)
1(1)
1(1)
1(1)
1(1)
1(1)
1(1)
1(1)
1(1)
1(1)
1(1)
1(1)
1(1)
1(1)
1(1)
1(1)
1(1)
1(1)
1(1)
1(1)
1(1)
1(1)
1(1)
1(1)
1(1)
1(1)
1(1)
1(1)
1(1)
1(1)
1(1)
1(1)
1(1)
1(1)
1(1)
1(1)
1(1)
1(1)
1(1)
1(1)
1(1)
1(1)
1(1)
1(1)
1(1)
1(1)
1(1)
1(1)
1(1)
1(1)
1(1)
1(1)
1(1)
1(1)
1(1)
1(1)
1(1)
1(1)
1(1)
1(1)
1(1)
1(1)
1(1)
1(1)
1(1)
1(1)
1(1)
1(1)
1(1)
1(1)
1(1)
1(1)
1(1)
1(1)
1(1)
1(1)
1(1)
1(1)
1(1)
1(1)
1(1)
1(1)
1(1)
1(1)
1(1)
1(1)
1(1)
1(1)
1(1)
1(1)
1(1)
1(1)
1(1)
1(1)
1(1)
1(1)
1(1)
1(1)
1(1)
1(1)
1(1)
1(1)
1(1)
1(1)
1(1)
1(1)
1(1)
1(1)
1(1)
1(1)
1(1)
1(1)
1(1)
1(1)
1(1)
1(1)
1(1)
1(1)
1(1)
1(1)
1(1)
1(1)
1(1)
1(1)
1(1)
1(1)
1(1)
1(1)
1(1)
1(1)
1(1)
1(1)
1(1)
1(1)
1(1)
1(1)
1(1)
1(1)
1(1)
1(1)
1(1)
1(1)
1(1)
1(1)
1(1)
1(1)
1(1)
1(1)
1(1)
1(1)
1(1)
1(1)
1(1)
1(1)
1(1)
1(1)
1(1)
1(1)
1(1)
1(1)
1(1)
1(1)
1(1)
1(1)
1(1)
1(1)
1(1)
1(1)
1(1)
1(1)
1(1)
1(1)
1(1)
1(1)
1(1)
1(1)
1(1)
1(1)
1(1)
1(1)
1(1)
1(1)
1(1)
1(1)
1(1)
1(1)
1(1)
1(1)
1(1)
1(1)
1(1)
1(1)
1(1)
1(1)
1(1)
1(1)
1(1)
1(1)
1(1)
1(1)
1(1)
1(1)
1(1)
1(1)
1(1)
1(1)
1(1)
1(1)
1(1)
1(1)
1(1)
1(1)
1(1)
1(1)
1(1)
1(1)
1(1)
1(1)
1(1)
1(1)
1(1)
1(1)
1(1)
1(1)
1(1)
1(1)
1(1)
1(1)
1(1)
1(1)
1(1)
1(1)
1(1)
1(1)
1(1)
1(1)
1(1)
1(1)
1(1)
1(1)
1(1)
1(1)
1(1)
1(1)
1(1)
1(1)
1(1)
1(1)
1(1)
1(1)
1(1)
1(1)
1(1)
)

// edgeNormals

280
(
2(179 191)
1(0)
1(0)
1(1)
1(1)
1(2)
1(2)
1(3)
1(3)
1(4)
1(4)
1(5)
1(5)
1(6)
1(7)
1(8)
1(9)
1(9)
1(10)
1(10)
1(11)
1(11)
1(12)
1(12)
1(13)
1(13)
1(14)
1(14)
1(15)
1(15)
1(16)
1(16)
1(17)
1(17)
1(18)
1(18)
1(19)
1(20)
1(20)
1(21)
1(21)
1(22)
1(22)
1(23)
1(23)
1(24)
1(24)
1(25)
1(25)
1(26)
1(26)
1(27)
1(27)
1(28)
1(28)
1(29)
1(29)
1(30)
1(31)
1(31)
1(32)
1(32)
1(33)
1(33)
1(34)
1(35)
1(35)
1(36)
1(36)
1(37)
1(37)
1(38)
1(39)
1(39)
1(40)
1(40)
1(41)
1(42)
1(43)
1(44)
1(44)
1(45)
1(46)
1(47)
1(48)
1(49)
1(49)
1(50)
1(50)
1(51)
1(52)
1(53)
1(54)
1(54)
1(55)
1(56)
1(57)
1(58)
1(59)
1(60)
1(60)
1(61)
1(62)
1(62)
1(63)
1(63)
1(64)
1(64)
1(65)
1(65)
1(66)
1(66)
1(67)
1(67)
1(68)
1(68)
1(69)
1(69)
1(70)
1(70)
1(71)
1(71)
1(72)
1(73)
1(74)
1(75)
1(75)
1(76)
1(77)
1(78)
1(79)
1(80)
1(80)
1(81)
1(82)
1(82)
1(83)
1(84)
1(85)
1(85)
1(86)
1(86)
1(87)
1(88)
1(89)
1(90)
1(91)
1(92)
1(93)
1(93)
1(94)
1(94)
1(95)
1(95)
1(96)
1(96)
1(97)
1(97)
1(98)
1(98)
1(99)
1(100)
1(101)
1(102)
1(102)
1(103)
1(103)
1(104)
1(105)
1(106)
1(107)
1(107)
1(108)
1(108)
1(109)
1(109)
1(110)
1(111)
1(112)
1(112)
1(113)
1(113)
1(114)
1(114)
1(115)
1(116)
1(117)
1(117)
1(118)
1(118)
1(119)
1(119)
1(120)
1(121)
1(122)
1(122)
1(123)
1(124)
1(124)
1(125)
1(126)
1(127)
1(128)
1(129)
1(130)
1(130)
1(131)
1(132)
1(133)
1(134)
1(135)
1(136)
1(137)
1(138)
1(139)
1(139)
1(140)
1(140)
1(141)
1(142)
1(142)
1(143)
1(143)
1(144)
1(145)
1(145)
1(146)
1(146)
1(147)
1(148)
1(149)
1(150)
1(150)
1(151)
1(152)
1(153)
1(154)
1(155)
1(156)
1(157)
1(158)
1(158)
1(159)
1(160)
1(161)
1(162)
1(163)
1(163)
1(164)
1(165)
1(165)
1(166)
1(167)
1(168)
1(169)
1(170)
1(171)
1(172)
1(173)
1(173)
1(174)
1(174)
1(175)
1(175)
1(176)
1(177)
1(178)
1(179)
1(179)
1(180)
1(181)
1(182)
1(183)
1(184)
1(185)
1(186)
1(187)
1(188)
1(189)
1(190)
)

// featurePointNormals

2
(
3(179 191 167)
3(179 191 180)
)

// featurePointEdges

2
(
3(0 252 268)
3(0 267 269)
)

// regionEdges

279
(
1
2
3
4
5
6
7
8
9
10
11
12
13
14
15
16
17
18
19
20
21
22
23
24
25
26
27
28
29
30
31
32
33
34
35
36
37
38
39
40
41
42
43
44
45
46
47
48
49
50
51
52
53
54
55
56
57
58
59
60
61
62
63
64
65
66
67
68
69
70
71
72
73
74
75
76
77
78
79
80
81
82
83
84
85
86
87
88
89
90
91
92
93
94
95
96
97
98
99
100
101
102
103
104
105
106
107
108
109
110
111
112
113
114
115
116
117
118
119
120
121
122
123
124
125
126
127
128
129
130
131
132
133
134
135
136
137
138
139
140
141
142
143
144
145
146
147
148
149
150
151
152
153
154
155
156
157
158
159
160
161
162
163
164
165
166
167
168
169
170
171
172
173
174
175
176
177
178
179
180
181
182
183
184
185
186
187
188
189
190
191
192
193
194
195
196
197
198
199
200
201
202
203
204
205
206
207
208
209
210
211
212
213
214
215
216
217
218
219
220
221
222
223
224
225
226
227
228
229
230
231
232
233
234
235
236
237
238
239
240
241
242
243
244
245
246
247
248
249
250
251
252
253
254
255
256
257
258
259
260
261
262
263
264
265
266
267
268
269
270
271
272
273
274
275
276
277
278
279
)



// ************************************************************************* //
