/*--------------------------------*- C++ -*----------------------------------*\
  =========                 |
  \\      /  F ield         | OpenFOAM: The Open Source CFD Toolbox
   \\    /   O peration     | Website:  https://openfoam.org
    \\  /    A nd           | Version:  8
     \\/     M anipulation  |
\*---------------------------------------------------------------------------*/
FoamFile
{
    version     2.0;
    format      ascii;
    class       featureEdgeMesh;
    location    "constant/triSurface";
    object      outlet1.eMesh;
}
// * * * * * * * * * * * * * * * * * * * * * * * * * * * * * * * * * * * * * //


// points:

109
(
(0.04817340150475502 0.06399519741535187 -0.1555529981851578)
(0.0481783002614975 0.06400270015001297 -0.1555459946393967)
(0.04816849902272224 0.06399050354957581 -0.1555580049753189)
(0.04285360127687454 0.06369610130786896 -0.1583860069513321)
(0.04308779910206795 0.06356889754533768 -0.1583459973335266)
(0.04262150079011917 0.06386230140924454 -0.1584029942750931)
(0.04170329868793488 0.0711992010474205 -0.1544670015573502)
(0.04131779819726944 0.07096300274133682 -0.1548009961843491)
(0.04187940061092377 0.07126010209321976 -0.154342994093895)
(0.04846009984612465 0.06440900266170502 -0.1551620066165924)
(0.0486023984849453 0.06473120301961899 -0.154898002743721)
(0.04347629845142365 0.07146909832954407 -0.1534209996461868)
(0.04323719814419746 0.07147020101547241 -0.1535390019416809)
(0.04366489872336388 0.07144340127706528 -0.153341993689537)
(0.04786340147256851 0.06367660313844681 -0.1558990031480789)
(0.04766850173473358 0.06353799998760223 -0.1560789942741394)
(0.04723560065031052 0.06971489638090134 -0.1525959968566895)
(0.04696109890937805 0.06994490325450897 -0.1525949984788895)
(0.04743750020861626 0.06950650364160538 -0.1526200026273727)
(0.04681679978966713 0.07006879895925522 -0.1525930017232895)
(0.04670469835400581 0.07014639675617218 -0.1526020020246506)
(0.04864490032196045 0.06482119858264923 -0.1548230051994324)
(0.04871819913387299 0.06513919681310654 -0.1545960009098053)
(0.04300419986248016 0.07147780060768127 -0.1536509990692139)
(0.04281099885702133 0.07145930081605911 -0.1537590026855469)
(0.0421660989522934 0.07136379927396774 -0.1541379988193512)
(0.0423550009727478 0.07140140235424042 -0.1540209949016571)
(0.04642770066857338 0.0630137026309967 -0.1570120006799698)
(0.04650650173425674 0.06303530186414719 -0.1569599956274033)
(0.04634920135140419 0.06300350278615952 -0.1570570021867752)
(0.04845830053091049 0.06793089956045151 -0.1530539989471436)
(0.04826389998197556 0.06834109872579575 -0.1529060006141663)
(0.0485122986137867 0.06775909662246704 -0.1531299948692322)
(0.04404779896140099 0.06315519660711288 -0.1581149995326996)
(0.04430000111460686 0.06309449672698975 -0.1580249965190887)
(0.04383949935436249 0.06323009729385376 -0.158173993229866)
(0.04761369898915291 0.06932179629802704 -0.1526429951190948)
(0.04782599955797195 0.06904760003089905 -0.1527010053396225)
(0.04681750014424324 0.06310450285673141 -0.1567630022764206)
(0.04711709916591644 0.06321659684181213 -0.1565459966659546)
(0.04396260157227516 0.07140699774026871 -0.1532150059938431)
(0.04444209858775139 0.0712898001074791 -0.1530459970235825)
(0.04357310011982918 0.06332860141992569 -0.1582480072975159)
(0.04334469884634018 0.0634395033121109 -0.1582950055599213)
(0.04788399860262871 0.06897599995136261 -0.1527149975299835)
(0.04799079895019531 0.0688088983297348 -0.1527619957923889)
(0.04638779908418655 0.07036670297384262 -0.1526290029287338)
(0.0460411012172699 0.07058589905500412 -0.1526699960231781)
(0.04816289991140366 0.06854680180549622 -0.1528329998254776)
(0.04255229979753494 0.07144030183553696 -0.1538989990949631)
(0.0423336997628212 0.06408129632472992 -0.1584150046110153)
(0.04457750171422958 0.06303119659423828 -0.1579239964485168)
(0.04137120023369789 0.06507240235805511 -0.1583019942045212)
(0.04152360185980797 0.0648937001824379 -0.1583330035209656)
(0.04131289944052696 0.06515649706125259 -0.158280998468399)
(0.04722379893064499 0.06325700134038925 -0.156469002366066)
(0.04753199964761734 0.06343760341405869 -0.1562069952487946)
(0.0486271008849144 0.06739459931850433 -0.1532910019159317)
(0.04056959971785545 0.06646589934825897 -0.1578669995069504)
(0.04067499935626984 0.06624399870634079 -0.1579470038414001)
(0.04044970124959946 0.06679189950227737 -0.1577319949865341)
(0.04480550065636635 0.062990702688694 -0.1578350067138672)
(0.04510100185871124 0.06295490264892578 -0.157709002494812)
(0.04532530158758163 0.06294520199298859 -0.157602995634079)
(0.04570470005273819 0.06295029819011688 -0.1574109941720963)
(0.0410626009106636 0.06551820039749146 -0.1581889986991882)
(0.04090259969234467 0.06579510122537613 -0.1581030040979385)
(0.04127210006117821 0.07093439996242523 -0.1548410058021545)
(0.04106390103697777 0.07072620093822479 -0.1550689935684204)
(0.04093610122799873 0.07060389965772629 -0.1552059948444366)
(0.04594159871339798 0.06295529752969742 -0.1572889983654022)
(0.0455452986061573 0.07086080312728882 -0.1527529954910278)
(0.045124601572752 0.07105139642953873 -0.1528490036725998)
(0.04580029845237732 0.07072190195322037 -0.1527090072631836)
(0.0488131009042263 0.0662102997303009 -0.1539079993963242)
(0.04878979921340942 0.06649090349674225 -0.1537510007619858)
(0.04881040006875992 0.06585370004177094 -0.154121994972229)
(0.04218599945306778 0.06420499831438065 -0.1584150046110153)
(0.04182310029864311 0.06454390287399292 -0.158392995595932)
(0.04595300182700157 0.07064089924097061 -0.1526809930801392)
(0.04079720005393028 0.06598349660634995 -0.1580429971218109)
(0.04173389822244644 0.06463679671287537 -0.1583819985389709)
(0.0481950007379055 0.0684904009103775 -0.1528510004281998)
(0.04867409914731979 0.06720750033855438 -0.1533800065517426)
(0.04873999953269958 0.06688299775123596 -0.1535409986972809)
(0.04877670109272003 0.06665749847888947 -0.153658002614975)
(0.04875120148062706 0.06527569890022278 -0.1544979959726334)
(0.04880879819393158 0.06574609875679016 -0.1541880071163177)
(0.04875649884343147 0.06530919671058655 -0.1544750034809113)
(0.04037439823150635 0.06698770076036453 -0.1576520055532455)
(0.04035240039229393 0.06705909967422485 -0.1576199978590012)
(0.04025530070066452 0.06746459752321243 -0.1574259996414185)
(0.04450599849224091 0.0712725967168808 -0.1530250012874603)
(0.04477860033512115 0.07117529958486557 -0.1529469937086105)
(0.04506469890475273 0.07107619941234589 -0.1528639942407608)
(0.04021609947085381 0.0676209032535553 -0.1573520004749298)
(0.04066039994359016 0.07020779699087143 -0.155580997467041)
(0.04059850051999092 0.07009600102901459 -0.155679002404213)
(0.04091620072722435 0.07057829946279526 -0.1552319973707199)
(0.04043319821357727 0.06972739845514297 -0.1559820026159286)
(0.04017259925603867 0.06875920295715332 -0.1566919982433319)
(0.04016609862446785 0.06869199872016907 -0.1567350029945374)
(0.04025899991393089 0.06918320059776306 -0.1563950031995773)
(0.04015180096030235 0.06822670251131058 -0.1570210009813309)
(0.04039699956774712 0.06963729858398438 -0.1560540050268173)
(0.04027720168232918 0.0692610964179039 -0.1563390046358109)
(0.04757300019264221 0.06346560269594193 -0.1561699956655502)
(0.04015490040183067 0.0681615024805069 -0.1570589989423752)
(0.04021050035953522 0.06765410304069519 -0.1573349982500076)
)


// edges:

109
(
(0 1)
(2 0)
(3 4)
(5 3)
(6 7)
(8 6)
(9 10)
(1 9)
(11 12)
(13 11)
(14 2)
(15 14)
(16 17)
(18 16)
(19 20)
(17 19)
(21 22)
(10 21)
(23 24)
(12 23)
(25 8)
(26 25)
(27 28)
(29 27)
(30 31)
(32 30)
(33 34)
(35 33)
(36 18)
(37 36)
(38 39)
(28 38)
(40 13)
(41 40)
(42 35)
(43 42)
(44 37)
(45 44)
(20 46)
(46 47)
(48 45)
(49 26)
(24 49)
(50 5)
(4 43)
(34 51)
(52 53)
(54 52)
(55 56)
(39 55)
(57 32)
(58 59)
(60 58)
(51 61)
(61 62)
(62 63)
(63 64)
(65 54)
(66 65)
(67 68)
(7 67)
(68 69)
(64 70)
(70 29)
(71 72)
(73 71)
(74 75)
(76 74)
(77 50)
(78 77)
(79 73)
(47 79)
(80 66)
(59 80)
(53 81)
(82 48)
(31 82)
(83 57)
(84 83)
(85 84)
(75 85)
(22 86)
(87 76)
(88 87)
(89 60)
(90 89)
(91 90)
(92 41)
(93 92)
(94 93)
(81 78)
(95 91)
(96 97)
(98 96)
(97 99)
(100 101)
(102 100)
(101 103)
(104 105)
(99 104)
(106 15)
(105 102)
(103 107)
(107 108)
(72 94)
(56 106)
(86 88)
(69 98)
(108 95)
)

// * * * * * * * * * * * * * * * * * * * * * * * * * * * * * * * * * * * * * //


// ************************************************************************* //
