/*--------------------------------*- C++ -*----------------------------------*\
  =========                 |
  \\      /  F ield         | OpenFOAM: The Open Source CFD Toolbox
   \\    /   O peration     | Website:  https://openfoam.org
    \\  /    A nd           | Version:  8
     \\/     M anipulation  |
\*---------------------------------------------------------------------------*/
FoamFile
{
    version     2.0;
    format      ascii;
    class       extendedFeatureEdgeMesh;
    location    "constant/extendedFeatureEdgeMesh";
    object      aortaWall.extendedFeatureEdgeMesh;
}
// * * * * * * * * * * * * * * * * * * * * * * * * * * * * * * * * * * * * * //

// points

408
(
(0.002916052704676986 -0.008681402541697025 4.891855254207655e-10)
(0.002815294079482555 -0.008721048012375832 4.935981068321382e-10)
(0.003306155791506171 -0.008525042794644833 4.678337162111745e-10)
(0.004616499878466129 -0.008010368794202805 4.029095668212079e-10)
(0.004181159660220146 -0.008189618587493896 4.264003039544662e-10)
(0.00611025420948863 -0.007253965362906456 3.104015100507951e-10)
(0.005752984900027514 -0.007465890608727932 3.325185127245334e-10)
(-0.009647698141634464 -0.003298701485618949 4.784025398052449e-10)
(-0.009794819168746471 -0.002796084387227893 4.56271576076972e-10)
(-0.009536200203001499 -0.003670209087431431 5.042088968565395e-10)
(-0.009830757044255733 -0.002680676756426692 4.492756444651747e-10)
(-0.00996170099824667 -0.002217658096924424 4.185024271574633e-10)
(-0.01006863731890917 -0.001691109617240727 3.910650137051164e-10)
(-0.01012342236936092 -0.00137373071629554 3.739302201211103e-10)
(-0.01018005236983299 -0.0008810667786747217 3.406153137319734e-10)
(-0.01023846492171288 0.0003299044328741729 2.640369589634872e-10)
(-0.01023865584284067 0.0003883267927449197 2.596840520396881e-10)
(0.006730218883603811 -0.00686247181147337 2.631740103620217e-10)
(0.006287745665758848 -0.007148788776248693 2.941699384084728e-10)
(0.00827953964471817 -0.005593040958046913 1.397296861549435e-10)
(0.007891830988228321 -0.005961793474853039 1.751741252054018e-10)
(0.008343718014657497 -0.005529556889086962 1.347250783156895e-10)
(0.008762547746300697 -0.005094223655760288 8.861368583357176e-11)
(0.00868645217269659 -0.005176363978534937 9.989988003500372e-11)
(0.00924214068800211 -0.004540184512734413 4.348121862562948e-11)
(0.009077832102775574 -0.004735713824629784 5.612561457257748e-11)
(0.009490986354649067 -0.004221327137202024 1.944002944731515e-11)
(0.01011704374104738 -0.003191428724676371 -6.628148724319161e-11)
(0.009910866618156433 -0.003562782891094685 -4.052292182366024e-11)
(-0.0006709832232445478 -0.009844562970101833 6.655350714979136e-10)
(-0.0007392592960968614 -0.009859460406005383 6.683504305549093e-10)
(0.003456552745774388 -0.00846374873071909 4.583740331742803e-10)
(-0.006435687188059092 -0.008270537480711937 7.223552866975069e-10)
(-0.00663819583132863 -0.008087134920060635 7.157995862705491e-10)
(-0.007411074358969927 -0.007297867443412542 6.766514015765779e-10)
(-0.007598357275128365 -0.007092215120792389 6.761683990497147e-10)
(-0.007818132638931274 -0.00683514541015029 6.717638112441193e-10)
(-0.007049985229969025 -0.007678959053009748 6.987669332048085e-10)
(-0.009039804339408875 -0.004986417479813099 5.763268196012916e-10)
(-0.009079268202185631 -0.004908671136945486 5.74522041052461e-10)
(-0.008819659240543842 -0.005391750950366259 6.000405172734702e-10)
(-0.008739212527871132 -0.005522878840565681 6.087981230251671e-10)
(-0.009813570417463779 -0.002735203364863992 4.524358665491945e-10)
(0.007899489253759384 0.006189368199557066 -6.270081676085226e-10)
(0.008153417147696018 0.006031008902937174 -6.234862071075042e-10)
(-0.008360401727259159 -0.006092527881264687 6.361716153868713e-10)
(-0.008570865727961063 -0.005790804512798786 6.243809913542009e-10)
(-0.009601268917322159 0.004532058723270893 -2.59640087207913e-11)
(-0.009391127154231071 0.005002489779144526 -6.938975782855294e-11)
(-0.009680348448455334 0.004305244889110327 -1.041168193327557e-11)
(-0.00935437623411417 0.005089472513645887 -7.738208684937575e-11)
(-0.009342620149254799 0.005113897379487753 -7.88190623879359e-11)
(-0.0001443555811420083 0.008686196990311146 -5.704025585195893e-10)
(0.0001951233571162447 0.008633623830974102 -5.789999590888328e-10)
(0.0009163846261799335 0.00851102638989687 -5.856907181467363e-10)
(0.0009327848674729466 0.008508337661623955 -5.860743002017443e-10)
(0.0003952419792767614 0.008599716238677502 -5.779284273366159e-10)
(0.0009385672165080905 0.008507326245307922 -5.858052376517264e-10)
(0.00726507231593132 0.006551327183842659 -6.320592382813572e-10)
(0.007680562324821949 0.006324741058051586 -6.344859082574317e-10)
(0.008515248075127602 0.005777877289801836 -6.142368835782008e-10)
(0.005783886183053255 0.00722466642037034 -6.361932092247002e-10)
(0.006115082651376724 0.007091428618878126 -6.359825999169288e-10)
(0.006307787261903286 0.007006734143942595 -6.307822042472822e-10)
(0.006636990234255791 0.006858146283775568 -6.35043850838457e-10)
(0.007120454218238592 0.006626818794757128 -6.331682400606553e-10)
(0.004944906570017338 0.007523509208112955 -6.358738535716668e-10)
(0.005106770433485508 0.007477906998246908 -6.38364805460867e-10)
(0.005557600874453783 0.007315635215491056 -6.383609751914321e-10)
(-0.01023616082966328 0.001002831500954926 2.153250078240632e-10)
(-0.01021949108690023 0.001343681709840894 1.914362002253256e-10)
(0.005624087527394295 0.007291961926966906 -6.363188864710878e-10)
(0.007173157297074795 0.006603105459362268 -6.303865207613057e-10)
(0.002527091652154922 0.0082143759354949 -6.075768221869282e-10)
(0.002942402381449938 0.008116567507386208 -6.141552266747397e-10)
(-0.00490232277661562 0.008582173846662045 -4.281686116769379e-10)
(-0.004492700565606356 0.008660439401865005 -4.394569430576922e-10)
(-0.003870907006785274 0.008750301785767078 -4.632764727396932e-10)
(-0.003570484928786755 0.008782953023910522 -4.744201698159145e-10)
(-0.004204068798571825 0.008709823712706566 -4.472560100055034e-10)
(-0.003260977799072862 0.008809957653284073 -4.897757754918075e-10)
(-0.002080383943393826 0.00885078776627779 -5.247712819844708e-10)
(-0.001573138637468219 0.008830278180539608 -5.377144840501558e-10)
(-0.001478735590353608 0.008825480937957764 -5.358273824640492e-10)
(-0.000807376520242542 0.008767911233007908 -5.539280145683279e-10)
(-0.0007797532016411424 0.008765125647187233 -5.553741910802046e-10)
(0.002328395843505859 0.008249552920460701 -6.005581032475504e-10)
(-0.01019426621496677 -0.0007429489633068442 3.30397431635987e-10)
(-0.01022777613252401 -0.000220232323044911 2.953658151394478e-10)
(-0.01023739483207464 0.0004839487082790583 2.522348996336632e-10)
(0.003089851466938853 0.008086259476840496 -6.216752668208869e-10)
(-0.005696925334632397 0.008364753797650337 -3.95077193182658e-10)
(-0.005515370517969131 0.008423177525401115 -3.999247044639276e-10)
(-0.0007322300225496292 0.008758068084716797 -5.566842542492623e-10)
(0.01091345399618149 0.002145208651199937 -4.447444634791964e-10)
(0.01095015089958906 0.001780058839358389 -4.209303461344405e-10)
(0.01101956982165575 0.0007005277439020574 -3.505442880413767e-10)
(0.01101970206946135 0.0003488084475975484 -3.307415730180452e-10)
(0.01101411413401365 0.0009808617178350687 -3.612200261127185e-10)
(0.01092451997101307 -0.0008057636441662908 -2.501168716584345e-10)
(0.01092294231057167 -0.0008224525954574347 -2.490351536099666e-10)
(0.00402838597074151 -0.008242355659604073 4.305024670081536e-10)
(0.005197330377995968 -0.007749521639198065 3.638582768417109e-10)
(0.004790127277374268 -0.007937835529446602 3.90773885472484e-10)
(0.01056154631078243 0.003321148687973619 -5.110073475478316e-10)
(0.0107127521187067 0.002930031158030033 -4.856768320848914e-10)
(-0.004180809948593378 -0.009672427549958229 7.591082762381518e-10)
(-0.004400796722620726 -0.009587825275957584 7.559319281646992e-10)
(0.0106410151347518 -0.001925274496898055 -1.644638591979941e-10)
(0.01050923299044371 -0.002273693913593888 -1.399304977445226e-10)
(-0.003556989599019289 -0.009828722104430199 7.44275530095706e-10)
(-0.003576938761398196 -0.009825249202549458 7.452351513670408e-10)
(-0.003629775950685143 -0.009810431860387325 7.462748752296022e-10)
(-0.002864821814000607 -0.00992758572101593 7.322317752134211e-10)
(-0.003343623131513596 -0.009858592413365841 7.411638525134379e-10)
(-0.009504568763077259 -0.003798276884481311 5.123385604655084e-10)
(0.003666537115350366 0.007921271026134491 -6.236406391302296e-10)
(0.004090740811079741 0.007790012750774622 -6.321306811329919e-10)
(-0.009392661042511463 -0.004119734279811382 5.296710847702002e-10)
(0.002403160789981484 -0.00888375099748373 5.145320280952603e-10)
(-0.002263937843963504 0.008850443176925182 -5.130111335738263e-10)
(-0.002664718776941299 0.008843597024679184 -5.009465620098297e-10)
(0.004381246399134398 0.007700312882661819 -6.341270286647216e-10)
(0.01078102737665176 0.002708295127376914 -4.710402068397457e-10)
(-0.00930403359234333 -0.004375673830509186 5.458277163583602e-10)
(-0.009325649589300156 -0.0043210219591856 5.426338267611186e-10)
(-0.00843734759837389 0.006518400739878416 -1.96075683467356e-10)
(-0.008102267980575562 0.006897357758134604 -2.320923730980695e-10)
(-0.008469979278743267 0.006482519675046206 -1.929825743651747e-10)
(-0.009295361116528511 0.005200768355280161 -8.687259939188507e-11)
(-0.009065213613212109 0.005644028075039387 -1.269754579258375e-10)
(-0.007652428932487965 0.007314900401979685 -2.694037493089496e-10)
(-0.00741777615621686 0.007505225483328104 -2.85496737362223e-10)
(-0.007198282051831484 0.00766236474737525 -3.060160180812233e-10)
(-0.006888099014759064 0.007847064174711704 -3.266673598290026e-10)
(-0.009994999505579472 0.003188878297805786 6.711877581500048e-11)
(-0.009954573586583138 0.003390836762264371 5.079286991005461e-11)
(-0.008955349214375019 0.005812503397464752 -1.415015604688818e-10)
(-0.005859672091901302 -0.008765514008700848 7.403773705227934e-10)
(-0.006234711967408657 -0.00846509262919426 7.249778555262765e-10)
(0.00458418857306242 0.007636952213943005 -6.342063540998311e-10)
(-0.006965441163629293 -0.00776339927688241 7.036296545415155e-10)
(-0.007021653465926647 -0.007707639131695032 7.00883961979315e-10)
(0.001670166966505349 -0.009152683429419994 5.529248170432766e-10)
(0.001590165076777339 -0.009180792607367039 5.561589522251609e-10)
(0.007300378289073706 -0.006448110099881887 2.211473781876805e-10)
(0.007285622879862785 -0.00645999563857913 2.232954376957252e-10)
(0.003501427825540304 -0.008447482250630856 4.572159040261425e-10)
(-0.006689951755106449 0.007958577945828438 -3.429505845975456e-10)
(-0.006305736489593983 0.008131799288094044 -3.639313295167312e-10)
(-0.006118979770690203 0.008210618980228901 -3.738412912568378e-10)
(-0.007917706854641438 0.007079550996422768 -2.51454967958864e-10)
(-0.009800569154322147 0.003967830445617437 1.030624457304397e-11)
(-0.002928042551502585 0.008831851184368134 -5.016032034177442e-10)
(0.001480202889069915 0.008408566005527973 -5.880543829661633e-10)
(0.001644257106818259 0.008378117345273495 -5.904544075896467e-10)
(0.002013763412833214 0.008312913589179516 -5.917827339274595e-10)
(0.01097739115357399 0.001559703145176172 -4.071564474461553e-10)
(-0.008124475367367268 -0.006427186541259289 6.504450311695109e-10)
(-0.0007599917589686811 -0.009862523525953293 6.698459009690794e-10)
(-0.001360235270112753 -0.009944458492100239 6.957554532505128e-10)
(-0.01015165727585554 0.002212185878306627 1.429472373803975e-10)
(-0.01011364348232746 0.002461080672219396 1.244650216225551e-10)
(-0.01006928738206625 0.00281148380599916 9.387780136593804e-11)
(0.01098310388624668 0.001474930788390338 -3.990969776879183e-10)
(-0.01005484163761139 -0.001779702259227633 3.981480145576199e-10)
(0.006798733491450548 -0.006817006040364504 2.586926506342735e-10)
(0.007191746030002832 -0.006528228055685759 2.297296658460013e-10)
(0.009790482930839062 -0.003771793795749545 -2.348004603247578e-11)
(-0.004680822603404522 -0.009485989809036255 7.581884564622499e-10)
(0.0003772068594116718 -0.009585918858647346 6.208415448405447e-10)
(1.140560380008537e-05 -0.009684380143880844 6.339632707685894e-10)
(0.0009791585616767406 -0.00938830990344286 5.901769073446417e-10)
(0.0009718681685626507 -0.009390708990395069 5.910786304852422e-10)
(-0.005738798994570971 -0.008863255381584167 7.426903536611462e-10)
(-0.005675611551851034 -0.008904450573027134 7.426716464031813e-10)
(-0.01003328431397676 -0.001872651861049235 4.012743748393888e-10)
(-0.01018961519002914 -0.0008072396740317345 3.374119039722956e-10)
(0.009836471639573574 -0.003700137138366699 -3.242710960860151e-11)
(0.01081197056919336 -0.001376714673824608 -2.089748096789634e-10)
(0.01073487475514412 -0.001627381891012192 -1.873832339294168e-10)
(0.01088596601039171 0.002270272001624107 -4.531981456779022e-10)
(-0.01017523184418678 0.001937634660862386 1.565433060957133e-10)
(-0.0102072274312377 0.001604540040716529 1.758305862020748e-10)
(0.01004552096128464 0.004277310334146023 -5.612575959546007e-10)
(0.01022445689886808 0.003979836590588093 -5.461902596870516e-10)
(0.008590473793447018 0.005726485047489405 -6.138072827788221e-10)
(0.008631829172372818 0.005693492479622364 -6.121744222653547e-10)
(0.008995402604341507 0.005404903553426266 -6.016257492191812e-10)
(0.01052134297788143 0.003410594537854195 -5.127925861714289e-10)
(-0.0051677031442523 -0.009234710596501827 7.461823381404997e-10)
(0.005442526657134295 -0.007624180056154728 3.463101472256369e-10)
(0.00345492223277688 0.007980319671332836 -6.206218317039713e-10)
(-0.0001739552535582334 -0.009740366600453854 6.392443796521263e-10)
(0.0009556951117701828 -0.009395832195878029 5.915830048053294e-10)
(0.009766819886863232 0.004632154945284128 -5.747768927477637e-10)
(0.009710646234452724 0.004703147802501917 -5.759956955841972e-10)
(0.009238968603312969 0.00517342472448945 -5.930390067909741e-10)
(0.009588726796209812 0.004825097508728504 -5.811551795353864e-10)
(0.01034923549741507 0.003768173279240727 -5.327024377166367e-10)
(-0.002156492322683334 -0.00996740348637104 7.162931359161462e-10)
(-0.002179499249905348 -0.009967071935534477 7.171923055437901e-10)
(-0.001558525720611215 -0.009957659058272839 7.042127991851999e-10)
(0.003603025106713176 0.007939713075757027 -6.238995431395722e-10)
(0.0104817571118474 -0.002341791288927197 -1.368720553562852e-10)
(0.009362878277897835 0.005060213152319193 -5.925250845528751e-10)
(0.01099898386746645 -5.392266029957682e-05 -3.027040562653127e-10)
(0.01099101640284061 -0.0002038404199993238 -2.934492926431886e-10)
(-0.002324117813259363 -0.009958836250007153 7.199558171855358e-10)
(-0.005104545969516039 0.008536342531442642 -4.187516999820673e-10)
(0.01021054573357105 -0.002988545224070549 -8.787992555880919e-11)
(0.01035247836261988 -0.002679442055523396 -1.15361470376385e-10)
(0.007771189324557781 -0.006069584283977747 1.817146433324979e-10)
(-0.005063275340944529 -0.009288857690989971 7.533443868723566e-10)
(-0.008223642595112324 -0.006293514743447304 6.416088771388218e-10)
(0.002194909378886223 -0.008963269181549549 5.270263669920894e-10)
(-0.008780794218182564 0.006082899868488312 -1.617145028998124e-10)
(-0.008496086113154888 0.00644860602915287 -1.905122448686569e-10)
(-0.002809590892866254 -0.009933270514011383 7.308909588665813e-10)
(0.01091687846928835 -0.000849560834467411 -2.465243287286256e-10)
(-0.009908851236104965 0.003548524808138609 4.015028934323261e-11)
(0.04173387587070465 0.06463675945997238 -0.1583817005157471)
(0.0418231412768364 0.06454386562108994 -0.1583928018808365)
(0.04218602925539017 0.06420502811670303 -0.1584146618843079)
(0.04233373329043388 0.06408125162124634 -0.1584151089191437)
(0.04642771929502487 0.06301369518041611 -0.1570119261741638)
(0.04650654271245003 0.0630352571606636 -0.1569596827030182)
(0.04757298529148102 0.06346563994884491 -0.1561699062585831)
(0.0476684682071209 0.06353804469108582 -0.1560789048671722)
(0.04819504171609879 0.06849035620689392 -0.1528505086898804)
(0.04816288128495216 0.06854680925607681 -0.1528327465057373)
(0.04506465420126915 0.07107614725828171 -0.1528637558221817)
(0.04477861523628235 0.07117526233196259 -0.1529470980167389)
(0.04021608456969261 0.06762094795703888 -0.1573518514633179)
(0.04025525227189064 0.06746455281972885 -0.1574259698390961)
(0.04846014827489853 0.06440895050764084 -0.1551623940467834)
(0.04860244691371918 0.06473124772310257 -0.154898390173912)
(0.04106390476226807 0.07072622328996658 -0.1550692766904831)
(0.04093610495328903 0.07060388475656509 -0.1552062928676605)
(0.04480545222759247 0.06299073994159698 -0.1578350216150284)
(0.04510098323225975 0.06295491755008698 -0.1577090322971344)
(0.04457752034068108 0.06303121894598007 -0.1579244881868362)
(0.04570466279983521 0.06295032054185867 -0.1574106067419052)
(0.04594163596630096 0.06295529752969742 -0.1572894006967545)
(0.04532533884048462 0.0629451647400856 -0.1576029360294342)
(0.04681747034192085 0.06310447305440903 -0.156763106584549)
(0.04711711779236794 0.06321661919355392 -0.1565464586019516)
(0.0481783039867878 0.06400270015001297 -0.1555462926626205)
(0.04634920507669449 0.06300346553325653 -0.1570572108030319)
(0.04035236686468124 0.06705914437770844 -0.157620295882225)
(0.04091619700193405 0.07057830691337585 -0.1552315503358841)
(0.04255232587456703 0.07144025713205338 -0.1538991034030914)
(0.0423550195991993 0.07140136510133743 -0.154020830988884)
(0.04300423339009285 0.07147785276174545 -0.1536511331796646)
(0.04281099513173103 0.07145930081605911 -0.1537586450576782)
(0.04127208143472672 0.07093441486358643 -0.1548407375812531)
(0.04131286963820457 0.065156489610672 -0.1582805067300797)
(0.0413711853325367 0.06507235020399094 -0.1583018004894257)
(0.04079721122980118 0.06598345935344696 -0.1580425351858139)
(0.04090261086821556 0.06579513102769852 -0.158102735877037)
(0.04021046683192253 0.06765410304069519 -0.1573348045349121)
(0.04015487432479858 0.06816147267818451 -0.1570587009191513)
(0.04015176743268967 0.06822670996189117 -0.1570211797952652)
(0.04016614332795143 0.06869199126958847 -0.1567353755235672)
(0.04017257690429688 0.0687592402100563 -0.1566918939352036)
(0.04875119403004646 0.06527574360370636 -0.1544981151819229)
(0.04875648021697998 0.06530915945768356 -0.1544754654169083)
(0.04347630590200424 0.07146906107664108 -0.1534208804368973)
(0.04323723539710045 0.07147017121315002 -0.1535394936800003)
(0.04366489499807358 0.07144341617822647 -0.1533421576023102)
(0.04066038504242897 0.07020781189203262 -0.1555810421705246)
(0.04059853404760361 0.07009600847959518 -0.155678853392601)
(0.0445060133934021 0.0712725967168808 -0.1530248075723648)
(0.04864485561847687 0.06482123583555222 -0.1548233479261398)
(0.04871822893619537 0.06513921171426773 -0.1545963138341904)
(0.04512464255094528 0.07105139642953873 -0.1528486460447311)
(0.04262150451540947 0.06386230140924454 -0.1584026515483856)
(0.04285360872745514 0.06369609385728836 -0.1583863943815231)
(0.04404778406023979 0.0631551668047905 -0.1581145524978638)
(0.04429997503757477 0.06309451907873154 -0.1580250561237335)
(0.04880882054567337 0.06574615091085434 -0.1541876643896103)
(0.0484582856297493 0.0679309070110321 -0.1530541926622391)
(0.04826389253139496 0.06834109127521515 -0.1529055386781693)
(0.04851227626204491 0.06775911152362823 -0.1531301438808441)
(0.04595297947525978 0.07064091414213181 -0.1526812016963959)
(0.04580026119947433 0.07072187960147858 -0.1527089178562164)
(0.04604111611843109 0.07058592140674591 -0.1526701599359512)
(0.04670466482639313 0.07014638185501099 -0.152602344751358)
(0.04638775065541267 0.07036670297384262 -0.1526285111904144)
(0.04444205760955811 0.07128981500864029 -0.1530463993549347)
(0.04396260529756546 0.07140695303678513 -0.1532154530286789)
(0.04554526507854462 0.07086081057786942 -0.1527529209852219)
(0.04056962206959724 0.06646588444709778 -0.1578671783208847)
(0.04067498072981834 0.06624404340982437 -0.1579474657773972)
(0.04044973477721214 0.06679187715053558 -0.1577317714691162)
(0.04131779819726944 0.07096298784017563 -0.1548008173704147)
(0.04867406189441681 0.0672074630856514 -0.1533797830343246)
(0.04862706735730171 0.06739461421966553 -0.1532911509275436)
(0.04308776184916496 0.06356887519359589 -0.1583457589149475)
(0.04334471002221107 0.06343948096036911 -0.1582950502634048)
(0.04357306659221649 0.06332863122224808 -0.1582475155591965)
(0.04383952543139458 0.06323014199733734 -0.1581735461950302)
(0.04799080267548561 0.06880893558263779 -0.1527616232633591)
(0.04788396880030632 0.06897597014904022 -0.1527148932218552)
(0.04743745550513268 0.06950650364160538 -0.152619943022728)
(0.04723559692502022 0.06971488147974014 -0.1525958627462387)
(0.04681682586669922 0.07006882131099701 -0.1525928378105164)
(0.04696113616228104 0.06994489580392838 -0.152595043182373)
(0.04817335680127144 0.06399521976709366 -0.1555532366037369)
(0.04025902599096298 0.06918319314718246 -0.1563948690891266)
(0.04027717188000679 0.06926114857196808 -0.1563391387462616)
(0.04216613993048668 0.07136384397745132 -0.1541375368833542)
(0.04170328006148338 0.07119915634393692 -0.1544670760631561)
(0.04152359813451767 0.0648936852812767 -0.1583327502012253)
(0.04043316468596458 0.06972736865282059 -0.1559821218252182)
(0.040397047996521 0.06963732838630676 -0.1560540497303009)
(0.04037439078092575 0.06698767095804214 -0.1576521098613739)
(0.04786338657140732 0.06367658823728561 -0.1558986902236938)
(0.04816854000091553 0.06399047374725342 -0.1555584818124771)
(0.04106258600950241 0.06551820784807205 -0.1581887602806091)
(0.04187936335802078 0.07126014679670334 -0.1543427109718323)
(0.04878981038928032 0.06649092584848404 -0.1537511348724365)
(0.04877671226859093 0.06665751338005066 -0.1536579132080078)
(0.04874003678560257 0.06688296794891357 -0.1535411924123764)
(0.04722381755709648 0.06325704604387283 -0.1564690172672272)
(0.04753197357058525 0.06343764066696167 -0.1562071293592453)
(0.04881039261817932 0.06585372984409332 -0.1541224420070648)
(0.04881314188241959 0.06621028482913971 -0.1539075523614883)
(0.04761368408799171 0.06932180374860764 -0.152642622590065)
(0.04782599955797195 0.06904763728380203 -0.1527008861303329)
(-0.01319303922355175 0.06374293565750122 -0.1609071344137192)
(-0.01349740289151669 0.06349136680364609 -0.1609538793563843)
(-0.008762963116168976 0.06453627347946167 -0.1632391661405563)
(-0.008961271494626999 0.06472544372081757 -0.1628988087177277)
(-0.00925794243812561 0.06491546332836151 -0.1624872833490372)
(-0.009358523413538933 0.06497666239738464 -0.162351131439209)
(-0.0090355034917593 0.06479563564062119 -0.1627720594406128)
(-0.01156450901180506 0.05991019308567047 -0.166095957159996)
(-0.01150817703455687 0.05992963165044785 -0.1661158055067062)
(-0.01475796941667795 0.06155558302998543 -0.162086233496666)
(-0.01478664018213749 0.06139108166098595 -0.1622385233640671)
(-0.009415796026587486 0.06499458104372025 -0.1622913926839828)
(-0.009726353920996189 0.06509576737880707 -0.1619632393121719)
(-0.01446388475596905 0.06231227889657021 -0.1615016609430313)
(-0.0146124018356204 0.06200193613767624 -0.1617214679718018)
(-0.008682315237820148 0.06252443045377731 -0.1654096990823746)
(-0.008544918149709702 0.06292969733476639 -0.1650822311639786)
(-0.01322468928992748 0.05958481132984161 -0.1652515232563019)
(-0.01278699655085802 0.05960047617554665 -0.165547788143158)
(-0.01038060430437326 0.06050771102309227 -0.1663143187761307)
(-0.01029304694384336 0.06057695671916008 -0.1663041412830353)
(-0.01000104378908873 0.06512149423360825 -0.1617399603128433)
(-0.01477374322712421 0.06059517711400986 -0.163083627820015)
(-0.01475369278341532 0.06050620228052139 -0.1631913930177689)
(-0.01454402133822441 0.06014341488480568 -0.1637222021818161)
(-0.01482389681041241 0.06092188134789467 -0.1627046763896942)
(-0.01482036430388689 0.06107691302895546 -0.1625443696975708)
(-0.01402452774345875 0.06295672059059143 -0.1611387580633163)
(-0.01424790639430285 0.06267779320478439 -0.1612720936536789)
(-0.008662392385303974 0.06436377763748169 -0.1634921878576279)
(-0.01452555879950523 0.060121800750494 -0.1637580990791321)
(-0.01428510807454586 0.05986714735627174 -0.1641973406076431)
(-0.01224005781114101 0.06443057954311371 -0.1608658283948898)
(-0.01255454868078232 0.06423257291316986 -0.1608490943908691)
(-0.008913320489227772 0.06207062676548958 -0.1657212376594543)
(-0.008794683031737804 0.06230201199650764 -0.1655630022287369)
(-0.009091435931622982 0.06180184334516525 -0.1658762693405151)
(-0.01328583806753159 0.05958432331681252 -0.1652083396911621)
(-0.01366801559925079 0.05962412059307098 -0.1648934781551361)
(-0.01344540994614363 0.05960319563746452 -0.1650745123624802)
(-0.008567678742110729 0.06416304409503937 -0.1637706756591797)
(-0.01013291627168655 0.06513296812772751 -0.1616336852312088)
(-0.01035607513040304 0.06510546803474426 -0.1615031212568283)
(-0.00846440251916647 0.06373759359121323 -0.1642912775278091)
(-0.008514695800840855 0.06399814784526825 -0.163981705904007)
(-0.01088306866586208 0.06021393090486526 -0.1662638485431671)
(-0.01042205840349197 0.0604790635406971 -0.1663147807121277)
(-0.009885302744805813 0.06088700145483017 -0.1662698537111282)
(-0.009640993550419807 0.06113109365105629 -0.1661880612373352)
(-0.009358502924442291 0.06145090982317924 -0.1660540103912354)
(-0.009192951023578644 0.06165120378136635 -0.1659619510173798)
(-0.01292638853192329 0.06395693123340607 -0.1608729064464569)
(-0.01302804984152317 0.06388328224420547 -0.1608776152133942)
(-0.0121605833992362 0.06447917968034744 -0.1608715802431107)
(-0.008456810377538204 0.06355685740709305 -0.1644865274429321)
(-0.0138268144801259 0.0596722848713398 -0.1647294461727142)
(-0.01362231094390154 0.06337680667638779 -0.1609849482774734)
(-0.01394517906010151 0.06304759532213211 -0.1611000001430511)
(-0.01405979413539171 0.0597512274980545 -0.1644800752401352)
(-0.008539404720067978 0.06294700503349304 -0.1650680005550385)
(-0.008466330356895924 0.06332430243492126 -0.1647239625453949)
(-0.01145523134618998 0.06481288373470306 -0.1610250771045685)
(-0.01161850336939096 0.06475456058979034 -0.1609696745872498)
(-0.01171103864908218 0.06471111625432968 -0.1609491854906082)
(-0.01204075943678617 0.05975568294525146 -0.1659179627895355)
(-0.01398976240307093 0.05971328541636467 -0.1645699590444565)
(-0.008540628477931023 0.06294110417366028 -0.1650733202695847)
(-0.01441140286624432 0.06239610910415649 -0.1614511162042618)
(-0.01098818890750408 0.06015364080667496 -0.1662520617246628)
(-0.01097874715924263 0.06015758216381073 -0.1662546694278717)
(-0.01216360740363598 0.0597229078412056 -0.1658646166324615)
(-0.0146611612290144 0.06187870353460312 -0.1618160605430603)
(-0.01259454991668463 0.05963234230875969 -0.1656518280506134)
(-0.01453818753361702 0.06013378128409386 -0.163736492395401)
(-0.0110565172508359 0.0649699941277504 -0.161144956946373)
(-0.01075682509690523 0.06504309177398682 -0.1612823009490967)
(-0.01057666260749102 0.06508787721395493 -0.1613640040159225)
(-0.009510871022939682 0.06126167997717857 -0.1661438792943954)
)

// edges

408
(
(0 1)
(2 0)
(3 4)
(5 6)
(7 8)
(9 7)
(10 11)
(12 13)
(13 14)
(15 16)
(17 18)
(19 20)
(21 19)
(22 23)
(24 25)
(26 24)
(27 28)
(29 30)
(31 2)
(32 33)
(34 35)
(35 36)
(37 34)
(38 39)
(40 38)
(41 40)
(8 42)
(43 44)
(45 46)
(47 48)
(49 47)
(50 51)
(52 53)
(54 55)
(53 56)
(55 57)
(25 22)
(58 59)
(44 60)
(61 62)
(63 64)
(64 65)
(66 67)
(67 68)
(69 70)
(71 61)
(65 72)
(73 74)
(68 71)
(75 76)
(77 78)
(79 77)
(78 80)
(81 82)
(82 83)
(84 85)
(86 73)
(87 88)
(88 15)
(89 69)
(74 90)
(91 92)
(76 79)
(85 93)
(94 95)
(96 97)
(98 96)
(99 100)
(4 101)
(102 103)
(103 3)
(104 105)
(106 107)
(108 109)
(110 111)
(111 112)
(113 114)
(114 110)
(115 9)
(116 117)
(118 115)
(1 119)
(120 81)
(121 120)
(117 122)
(105 123)
(39 124)
(124 125)
(126 127)
(128 126)
(129 130)
(131 132)
(133 134)
(135 136)
(130 137)
(138 139)
(140 66)
(141 142)
(143 144)
(145 146)
(147 31)
(134 148)
(149 150)
(150 91)
(83 84)
(127 151)
(151 131)
(132 133)
(152 49)
(51 129)
(48 50)
(80 153)
(93 52)
(56 54)
(57 154)
(154 155)
(155 156)
(156 86)
(153 121)
(95 157)
(36 158)
(159 160)
(30 159)
(161 162)
(162 163)
(157 164)
(165 12)
(16 89)
(166 17)
(167 166)
(146 167)
(168 26)
(107 169)
(170 171)
(172 173)
(174 138)
(175 174)
(125 118)
(42 10)
(11 176)
(14 177)
(177 87)
(28 178)
(179 180)
(181 94)
(182 161)
(70 183)
(123 181)
(184 185)
(60 186)
(187 188)
(189 104)
(72 58)
(190 175)
(178 168)
(180 108)
(191 102)
(90 192)
(163 135)
(171 193)
(139 32)
(173 194)
(6 191)
(144 172)
(148 149)
(183 182)
(195 184)
(196 195)
(186 187)
(188 197)
(198 196)
(199 189)
(185 199)
(200 201)
(202 200)
(160 202)
(112 106)
(193 29)
(23 21)
(59 43)
(203 116)
(192 203)
(33 141)
(142 37)
(46 41)
(176 165)
(109 204)
(205 198)
(197 205)
(206 207)
(201 208)
(122 140)
(97 206)
(207 99)
(209 75)
(92 209)
(210 27)
(211 210)
(18 5)
(212 145)
(20 212)
(213 190)
(169 213)
(194 170)
(214 45)
(158 214)
(62 63)
(101 147)
(119 215)
(137 216)
(217 128)
(218 113)
(100 219)
(216 217)
(204 211)
(219 179)
(164 98)
(215 143)
(136 220)
(220 152)
(208 218)
(221 222)
(222 223)
(223 224)
(225 226)
(227 228)
(229 230)
(231 232)
(233 234)
(235 236)
(237 238)
(239 240)
(241 239)
(242 243)
(240 244)
(226 245)
(245 246)
(247 235)
(243 248)
(234 249)
(238 250)
(251 252)
(253 254)
(255 237)
(256 257)
(258 259)
(260 233)
(261 260)
(262 261)
(263 262)
(264 263)
(265 266)
(267 268)
(269 267)
(270 271)
(232 272)
(273 274)
(275 231)
(276 277)
(278 279)
(236 273)
(266 280)
(281 282)
(283 281)
(284 285)
(286 284)
(287 288)
(268 253)
(272 289)
(289 290)
(291 275)
(292 293)
(294 292)
(293 258)
(254 251)
(295 255)
(296 297)
(282 229)
(298 299)
(299 300)
(279 241)
(301 278)
(300 301)
(302 303)
(304 305)
(288 286)
(306 287)
(307 306)
(305 307)
(308 247)
(309 264)
(310 309)
(250 270)
(252 311)
(312 295)
(257 313)
(313 221)
(314 315)
(249 316)
(316 294)
(317 318)
(318 308)