/*--------------------------------*- C++ -*----------------------------------*\
  =========                 |
  \\      /  F ield         | OpenFOAM: The Open Source CFD Toolbox
   \\    /   O peration     | Website:  https://openfoam.org
    \\  /    A nd           | Version:  8
     \\/     M anipulation  |
\*---------------------------------------------------------------------------*/
FoamFile
{
    version     2.0;
    format      ascii;
    class       extendedFeatureEdgeMesh;
    location    "constant/extendedFeatureEdgeMesh";
    object      outlet1.extendedFeatureEdgeMesh;
}
// * * * * * * * * * * * * * * * * * * * * * * * * * * * * * * * * * * * * * //

// points

109
(
(0.04817340150475502 0.06399519741535187 -0.1555529981851578)
(0.0481783002614975 0.06400270015001297 -0.1555459946393967)
(0.04816849902272224 0.06399050354957581 -0.1555580049753189)
(0.04285360127687454 0.06369610130786896 -0.1583860069513321)
(0.04308779910206795 0.06356889754533768 -0.1583459973335266)
(0.04262150079011917 0.06386230140924454 -0.1584029942750931)
(0.04170329868793488 0.0711992010474205 -0.1544670015573502)
(0.04131779819726944 0.07096300274133682 -0.1548009961843491)
(0.04187940061092377 0.07126010209321976 -0.154342994093895)
(0.04846009984612465 0.06440900266170502 -0.1551620066165924)
(0.0486023984849453 0.06473120301961899 -0.154898002743721)
(0.04347629845142365 0.07146909832954407 -0.1534209996461868)
(0.04323719814419746 0.07147020101547241 -0.1535390019416809)
(0.04366489872336388 0.07144340127706528 -0.153341993689537)
(0.04786340147256851 0.06367660313844681 -0.1558990031480789)
(0.04766850173473358 0.06353799998760223 -0.1560789942741394)
(0.04723560065031052 0.06971489638090134 -0.1525959968566895)
(0.04696109890937805 0.06994490325450897 -0.1525949984788895)
(0.04743750020861626 0.06950650364160538 -0.1526200026273727)
(0.04681679978966713 0.07006879895925522 -0.1525930017232895)
(0.04670469835400581 0.07014639675617218 -0.1526020020246506)
(0.04864490032196045 0.06482119858264923 -0.1548230051994324)
(0.04871819913387299 0.06513919681310654 -0.1545960009098053)
(0.04300419986248016 0.07147780060768127 -0.1536509990692139)
(0.04281099885702133 0.07145930081605911 -0.1537590026855469)
(0.0421660989522934 0.07136379927396774 -0.1541379988193512)
(0.0423550009727478 0.07140140235424042 -0.1540209949016571)
(0.04642770066857338 0.0630137026309967 -0.1570120006799698)
(0.04650650173425674 0.06303530186414719 -0.1569599956274033)
(0.04634920135140419 0.06300350278615952 -0.1570570021867752)
(0.04845830053091049 0.06793089956045151 -0.1530539989471436)
(0.04826389998197556 0.06834109872579575 -0.1529060006141663)
(0.0485122986137867 0.06775909662246704 -0.1531299948692322)
(0.04404779896140099 0.06315519660711288 -0.1581149995326996)
(0.04430000111460686 0.06309449672698975 -0.1580249965190887)
(0.04383949935436249 0.06323009729385376 -0.158173993229866)
(0.04761369898915291 0.06932179629802704 -0.1526429951190948)
(0.04782599955797195 0.06904760003089905 -0.1527010053396225)
(0.04681750014424324 0.06310450285673141 -0.1567630022764206)
(0.04711709916591644 0.06321659684181213 -0.1565459966659546)
(0.04396260157227516 0.07140699774026871 -0.1532150059938431)
(0.04444209858775139 0.0712898001074791 -0.1530459970235825)
(0.04357310011982918 0.06332860141992569 -0.1582480072975159)
(0.04334469884634018 0.0634395033121109 -0.1582950055599213)
(0.04788399860262871 0.06897599995136261 -0.1527149975299835)
(0.04799079895019531 0.0688088983297348 -0.1527619957923889)
(0.04638779908418655 0.07036670297384262 -0.1526290029287338)
(0.0460411012172699 0.07058589905500412 -0.1526699960231781)
(0.04816289991140366 0.06854680180549622 -0.1528329998254776)
(0.04255229979753494 0.07144030183553696 -0.1538989990949631)
(0.0423336997628212 0.06408129632472992 -0.1584150046110153)
(0.04457750171422958 0.06303119659423828 -0.1579239964485168)
(0.04137120023369789 0.06507240235805511 -0.1583019942045212)
(0.04152360185980797 0.0648937001824379 -0.1583330035209656)
(0.04131289944052696 0.06515649706125259 -0.158280998468399)
(0.04722379893064499 0.06325700134038925 -0.156469002366066)
(0.04753199964761734 0.06343760341405869 -0.1562069952487946)
(0.0486271008849144 0.06739459931850433 -0.1532910019159317)
(0.04056959971785545 0.06646589934825897 -0.1578669995069504)
(0.04067499935626984 0.06624399870634079 -0.1579470038414001)
(0.04044970124959946 0.06679189950227737 -0.1577319949865341)
(0.04480550065636635 0.062990702688694 -0.1578350067138672)
(0.04510100185871124 0.06295490264892578 -0.157709002494812)
(0.04532530158758163 0.06294520199298859 -0.157602995634079)
(0.04570470005273819 0.06295029819011688 -0.1574109941720963)
(0.0410626009106636 0.06551820039749146 -0.1581889986991882)
(0.04090259969234467 0.06579510122537613 -0.1581030040979385)
(0.04127210006117821 0.07093439996242523 -0.1548410058021545)
(0.04106390103697777 0.07072620093822479 -0.1550689935684204)
(0.04093610122799873 0.07060389965772629 -0.1552059948444366)
(0.04594159871339798 0.06295529752969742 -0.1572889983654022)
(0.0455452986061573 0.07086080312728882 -0.1527529954910278)
(0.045124601572752 0.07105139642953873 -0.1528490036725998)
(0.04580029845237732 0.07072190195322037 -0.1527090072631836)
(0.0488131009042263 0.0662102997303009 -0.1539079993963242)
(0.04878979921340942 0.06649090349674225 -0.1537510007619858)
(0.04881040006875992 0.06585370004177094 -0.154121994972229)
(0.04218599945306778 0.06420499831438065 -0.1584150046110153)
(0.04182310029864311 0.06454390287399292 -0.158392995595932)
(0.04595300182700157 0.07064089924097061 -0.1526809930801392)
(0.04079720005393028 0.06598349660634995 -0.1580429971218109)
(0.04173389822244644 0.06463679671287537 -0.1583819985389709)
(0.0481950007379055 0.0684904009103775 -0.1528510004281998)
(0.04867409914731979 0.06720750033855438 -0.1533800065517426)
(0.04873999953269958 0.06688299775123596 -0.1535409986972809)
(0.04877670109272003 0.06665749847888947 -0.153658002614975)
(0.04875120148062706 0.06527569890022278 -0.1544979959726334)
(0.04880879819393158 0.06574609875679016 -0.1541880071163177)
(0.04875649884343147 0.06530919671058655 -0.1544750034809113)
(0.04037439823150635 0.06698770076036453 -0.1576520055532455)
(0.04035240039229393 0.06705909967422485 -0.1576199978590012)
(0.04025530070066452 0.06746459752321243 -0.1574259996414185)
(0.04450599849224091 0.0712725967168808 -0.1530250012874603)
(0.04477860033512115 0.07117529958486557 -0.1529469937086105)
(0.04506469890475273 0.07107619941234589 -0.1528639942407608)
(0.04021609947085381 0.0676209032535553 -0.1573520004749298)
(0.04066039994359016 0.07020779699087143 -0.155580997467041)
(0.04059850051999092 0.07009600102901459 -0.155679002404213)
(0.04091620072722435 0.07057829946279526 -0.1552319973707199)
(0.04043319821357727 0.06972739845514297 -0.1559820026159286)
(0.04017259925603867 0.06875920295715332 -0.1566919982433319)
(0.04016609862446785 0.06869199872016907 -0.1567350029945374)
(0.04025899991393089 0.06918320059776306 -0.1563950031995773)
(0.04015180096030235 0.06822670251131058 -0.1570210009813309)
(0.04039699956774712 0.06963729858398438 -0.1560540050268173)
(0.04027720168232918 0.0692610964179039 -0.1563390046358109)
(0.04757300019264221 0.06346560269594193 -0.1561699956655502)
(0.04015490040183067 0.0681615024805069 -0.1570589989423752)
(0.04021050035953522 0.06765410304069519 -0.1573349982500076)
)

// edges

109
(
(0 1)
(2 0)
(3 4)
(5 3)
(6 7)
(8 6)
(9 10)
(1 9)
(11 12)
(13 11)
(14 2)
(15 14)
(16 17)
(18 16)
(19 20)
(17 19)
(21 22)
(10 21)
(23 24)
(12 23)
(25 8)
(26 25)
(27 28)
(29 27)
(30 31)
(32 30)
(33 34)
(35 33)
(36 18)
(37 36)
(38 39)
(28 38)
(40 13)
(41 40)
(42 35)
(43 42)
(44 37)
(45 44)
(20 46)
(46 47)
(48 45)
(49 26)
(24 49)
(50 5)
(4 43)
(34 51)
(52 53)
(54 52)
(55 56)
(39 55)
(57 32)
(58 59)
(60 58)
(51 61)
(61 62)
(62 63)
(63 64)
(65 54)
(66 65)
(67 68)
(7 67)
(68 69)
(64 70)
(70 29)
(71 72)
(73 71)
(74 75)
(76 74)
(77 50)
(78 77)
(79 73)
(47 79)
(80 66)
(59 80)
(53 81)
(82 48)
(31 82)
(83 57)
(84 83)
(85 84)
(75 85)
(22 86)
(87 76)
(88 87)
(89 60)
(90 89)
(91 90)
(92 41)
(93 92)
(94 93)
(81 78)
(95 91)
(96 97)
(98 96)
(97 99)
(100 101)
(102 100)
(101 103)
(104 105)
(99 104)
(106 15)
(105 102)
(103 107)
(107 108)
(72 94)
(56 106)
(86 88)
(69 98)
(108 95)
)

// concaveStart mixedStart nonFeatureStart
0 0 0
// internalStart flatStart openStart multipleStart
0 0 0 109
// normals

73
(
(-0.2671585042899996 -0.5585719556228951 0.7852539105137554)
(-0.3839547283263001 -0.4540187153005726 0.8040185151802753)
(-0.3888936618371555 -0.4785125503095566 0.7872658121493225)
(-0.3935098479224279 -0.4724136143260754 0.7886541552464182)
(-0.3962826463729995 -0.4527575209342878 0.7987306751471676)
(-0.384996368381812 -0.4812775055984513 0.7874958786798498)
(-0.390710734794805 -0.4697300307511763 0.7916431139892537)
(-0.3799065346021466 -0.4554462416545472 0.8051333715163818)
(-0.3902294797504502 -0.4736636740297445 0.7895338352713814)
(-0.3929265008208582 -0.4790439071213426 0.7849367490458035)
(-0.3973676050104835 -0.4651447064326624 0.7910369072084467)
(-0.3906305089954571 -0.4743556379409353 0.7889198528339862)
(-0.4008404778937543 -0.4730379769153302 0.7845775829564328)
(-0.3951210946988659 -0.4837473979008954 0.78094031497169)
(-0.3856821053426026 -0.4669688606495145 0.7957319880476038)
(-0.3941596821812252 -0.4725266039235004 0.7882618559383163)
(-0.3935726953963347 -0.4767778384298081 0.7859920013719375)
(-0.3959966655799185 -0.485162735584608 0.7796177017292808)
(-0.395204683808098 -0.4739106553628858 0.7869065691870041)
(-0.3980818204013343 -0.4765503770964096 0.7838562383213069)
(-0.3903723526980247 -0.4693171695607554 0.7920548090911955)
(-0.3926915985477671 -0.4717280878717774 0.7894719244804315)
(-0.3874521208536132 -0.4879176363359241 0.7821874674260653)
(-0.3969199901517748 -0.4786782539290976 0.7831485495315084)
(-0.3961024074103134 -0.4773066572920108 0.7843986472122967)
(-0.3946279117992806 -0.4756270631417506 0.7861601033098107)
(-0.3815127484157659 -0.4640832070549747 0.7994215406941558)
(-0.3823436314905694 -0.4868652309508439 0.7853506187364883)
(-0.3993282845833661 -0.4727548209533957 0.7855188097028797)
(-0.3942505842094935 -0.4716394334107915 0.7887475652592663)
(-0.3922258146823568 -0.467726235393704 0.7920802225918754)
(-0.3935116849584619 -0.4724863244647906 0.7886096797496877)
(-0.3933504356412438 -0.471771687091019 0.7891178049189723)
(-0.3932331286947015 -0.4711597873369436 0.7895417413244105)
(-0.3896506266710743 -0.4709431820054134 0.7914448233815515)
(-0.4014514125773488 -0.4635424480904325 0.789914654983676)
(-0.3935165822396485 -0.4723061111534121 0.7887151810822248)
(-0.3941560559961657 -0.4779583576309106 0.7849820455859547)
(-0.3934601682420896 -0.4714631294693491 0.789247498290539)
(-0.3952642346005633 -0.4770477733469239 0.7849787301515709)
(-0.3590733635036187 -0.4782416980659552 0.8014681514902448)
(-0.3933574335860349 -0.4696692021568124 0.7903674904675619)
(-0.393599859808484 -0.472670480387099 0.7884553045857265)
(-0.400170465898413 -0.485592833064913 0.7772150273242525)
(-0.4241619495842188 -0.481578496338393 0.7669216337992866)
(-0.3929512218055307 -0.4721525838976212 0.7890888890361721)
(-0.367838312797632 -0.4661518378308188 0.804610116593833)
(-0.3952256493197493 -0.4736784591059509 0.7870358336815386)
(-0.3924633093074156 -0.4714988062685982 0.7897223730747146)
(-0.3945357435870934 -0.4729776765576762 0.7878030620086989)
(-0.392529336365905 -0.4716416348157014 0.789604260627129)
(-0.3983266338196469 -0.4694592678341665 0.7879999293366193)
(-0.3336290587191983 -0.4893497717817809 0.8057471390177322)
(-0.4059263161570678 -0.4750616723179557 0.7807305766688145)
(-0.3785464283445373 -0.4716564651926412 0.7963936089833826)
(-0.3817350996748947 -0.4024166839253211 0.8320691835266744)
(-0.392807175740812 -0.4740033104301131 0.7880503691946478)
(-0.3935590124943606 -0.4713537287947229 0.7892635592980171)
(-0.3934360483849662 -0.4721379418245499 0.7888560323157201)
(-0.3773408825660959 -0.4834845180954815 0.7898459211176695)
(-0.3932159418869942 -0.4721852794854306 0.7889374404115891)
(-0.4387200986226881 -0.4538672464596621 0.7755831339422119)
(-0.3870158007555257 -0.474181536196937 0.7908037940573326)
(-0.3935191390512657 -0.4722289635406627 0.7887600986318096)
(-0.3885559070864407 -0.4777820434111168 0.7878760220124299)
(-0.3820088782855829 -0.4789306776981336 0.7903762539895777)
(-0.37823627101542 -0.4794701567913564 0.7918621673213224)
(-0.393811846095053 -0.4721459003668686 0.7886637297619089)
(-0.3931630282298551 -0.4730003588004914 0.7884754237182898)
(-0.3924879520807316 -0.470002030322901 0.7906018586898365)
(-0.3712943294635825 -0.4848250378172155 0.7918871154487388)
(-0.401200640400565 -0.4803304965934589 0.7799491394856831)
(-0.3930879973487965 -0.4707844659226644 0.789837839677376)
)

// normal volume types

73
(
0
0
0
0
0
0
0
0
0
0
0
0
0
0
0
0
0
0
0
0
0
0
0
0
0
0
0
0
0
0
0
0
0
0
0
0
0
0
0
0
0
0
0
0
0
0
0
0
0
0
0
0
0
0
0
0
0
0
0
0
0
0
0
0
0
0
0
0
0
0
0
0
0
)

// normalDirections

109
(
1(1)
1(1)
1(1)
1(1)
1(1)
1(1)
1(1)
1(1)
1(1)
1(1)
1(1)
1(1)
1(1)
1(1)
1(1)
1(1)
1(1)
1(1)
1(1)
1(1)
1(1)
1(1)
1(1)
1(1)
1(1)
1(1)
1(1)
1(1)
1(1)
1(1)
1(1)
1(1)
1(1)
1(1)
1(1)
1(1)
1(1)
1(1)
1(1)
1(1)
1(1)
1(1)
1(1)
1(1)
1(1)
1(1)
1(1)
1(1)
1(1)
1(1)
1(1)
1(1)
1(1)
1(1)
1(1)
1(1)
1(1)
1(1)
1(1)
1(1)
1(1)
1(1)
1(1)
1(1)
1(1)
1(1)
1(1)
1(1)
1(1)
1(1)
1(1)
1(1)
1(1)
1(1)
1(1)
1(1)
1(1)
1(1)
1(1)
1(1)
1(1)
1(1)
1(1)
1(1)
1(1)
1(1)
1(1)
1(1)
1(1)
1(1)
1(1)
1(1)
1(1)
1(1)
1(1)
1(1)
1(1)
1(1)
1(1)
1(1)
1(1)
1(1)
1(1)
1(1)
1(1)
1(1)
1(1)
1(1)
1(1)
)

// edgeNormals

109
(
1(0)
1(0)
1(1)
1(1)
1(2)
1(2)
1(3)
1(3)
1(4)
1(4)
1(5)
1(5)
1(6)
1(6)
1(7)
1(7)
1(8)
1(8)
1(9)
1(9)
1(10)
1(10)
1(11)
1(11)
1(12)
1(12)
1(13)
1(13)
1(14)
1(14)
1(15)
1(15)
1(16)
1(16)
1(17)
1(17)
1(18)
1(18)
1(19)
1(20)
1(21)
1(22)
1(22)
1(23)
1(24)
1(25)
1(26)
1(26)
1(27)
1(27)
1(28)
1(29)
1(29)
1(30)
1(31)
1(32)
1(33)
1(34)
1(34)
1(35)
1(35)
1(36)
1(37)
1(38)
1(39)
1(39)
1(40)
1(40)
1(41)
1(42)
1(43)
1(43)
1(44)
1(44)
1(45)
1(46)
1(46)
1(47)
1(48)
1(49)
1(50)
1(51)
1(52)
1(52)
1(53)
1(53)
1(54)
1(55)
1(55)
1(56)
1(57)
1(58)
1(59)
1(59)
1(60)
1(61)
1(61)
1(62)
1(63)
1(63)
1(64)
1(65)
1(66)
1(67)
1(68)
1(69)
1(70)
1(71)
1(72)
)

// featurePointNormals
0()
// featurePointEdges
0()
// regionEdges

109
(
0
1
2
3
4
5
6
7
8
9
10
11
12
13
14
15
16
17
18
19
20
21
22
23
24
25
26
27
28
29
30
31
32
33
34
35
36
37
38
39
40
41
42
43
44
45
46
47
48
49
50
51
52
53
54
55
56
57
58
59
60
61
62
63
64
65
66
67
68
69
70
71
72
73
74
75
76
77
78
79
80
81
82
83
84
85
86
87
88
89
90
91
92
93
94
95
96
97
98
99
100
101
102
103
104
105
106
107
108
)



// ************************************************************************* //
