 // -*- C++ -*-
    // File generated by PyFoam - sorry for the ugliness

    FoamFile
    {
     version 2.0;
     format ascii;
     class dictionary;
     object controlDict;
    }

    application pimpleFoam;

    startFrom latestTime;

    startTime 0;

    stopAt endTime;

    endTime 5;

    deltaT	5e-5;

    writeControl    adjustableRunTime;

    writeInterval 0.01;

    adjustTimeStep yes;

    maxCo 0.5;

    purgeWrite 0;

    writeFormat ascii;

    writePrecision 8;

    timeFormat general;

    timePrecision 8;

    runTimeModifiable no;
    wallShearStress1
    {
      type wallShearStress;
      libs
        (
          fieldFunctionObjects
        ); 	// Mandatory entries (unmodifiable)// Optional entries (runtime modifiable)
      patches
        (
          aortaWall
        ); 	// (wall1 "(wall2|wall3)");// Optional (inherited) entries
      writePrecision 8;
      writeToFile yes;
      useUserTime yes;
      region aortaWall;
      enabled yes;
      log yes;
      timeStart 0;
      timeEnd 4;
      executeControl timeStep;
      executeInterval 1;
      writeControl timeStep;
      writeInterval 10;
    } 	// ************************************************************************* //




    functions
    { 




        probes1
    {
    type probes;

    libs ("libsampling.so");

    //dictionary probesDict;

        writeControl timeStep;
        writeInterval 20;
    probeLocations
    (   
      (0.00022924318511642052 6.78033537481334e-05 -0.0054881459515066745)
(0.0002322082232865219 9.920262711144746e-05 -0.010662067184830133)
(0.00021774153547664266 4.3243453509312236e-05 -0.0177845298070499)
(0.00023956024858370374 3.533974045812961e-05 -0.02489984803748775)
(0.0011836399657433935 -0.0005186251793746403 -0.03192176438451392)
(0.002347617997295324 -0.0010220048339597805 -0.03710502605515366)
(0.004170023202047839 -0.002399571677272009 -0.04382836818651439)
(0.005699434214713427 -0.005572120512606261 -0.05000163505679717)
(0.006041215610051973 -0.008797516928589488 -0.056298729735854015)
(0.00394778055607567 -0.011883467981510017 -0.06233807549781532)
(0.0014672218540903517 -0.013292536866214802 -0.06684662998470187)
(-0.0013264525737612907 -0.015445004636337575 -0.07301187467009872)
(-0.00359611073465798 -0.017946566211006237 -0.0792927840296957)
(-0.007599650367284477 -0.020787741321264316 -0.08422513233763723)
(-0.014324244911571783 -0.022768786231842142 -0.08639634219786145)
(-0.019824259331235126 -0.02260023750091116 -0.08718578866682698)
(-0.02688066036976499 -0.02131458022678427 -0.08814844290173686)
(-0.03288253537528142 -0.020666292703534723 -0.09006692847482455)
(-0.03852905685390316 -0.021259469267600858 -0.0931696570158412)
(-0.04627490442518792 -0.022043225742179512 -0.09659943635296708)

    );

    fields
    (
    p U
    );
    }
    }




    // ************************************************************************* //

    