 /*--------------------------------*- C++ -*----------------------------------*\
      =========                 |
      \\      /  F ield         | OpenFOAM: The Open Source CFD Toolbox
       \\    /   O peration     | Website:  https://openfoam.org
        \\  /    A nd           | Version:  8
         \\/     M anipulation  |
    \*---------------------------------------------------------------------------*/
    FoamFile
    {
        version     2.0;
        format      ascii;
        class       dictionary;
        object      transportProperties;
    }
    // * * * * * * * * * * * * * * * * * * * * * * * * * * * * * * * * * * * * * //

    transportModel  Newtonian;

    nu              [0 2 -1 0 0 0 0] 3.365e-06;

    area
    {
      area	 (key1 0);
    }

    us
    {
      us	 (key2 0);
    }

    profile
    {	     
        t_u 

    (
    (0.0 0.02916597680555278)
(0.01 0.03784785927330643)
(0.02 0.04652974174106008)
(0.03 0.050856674472321395)
(0.04 0.05509473067834818)
(0.05 0.039838633904217144)
(0.06 0.018383135757682113)
(0.07 -0.013575918525056688)
(0.08 -0.06138327257836395)
(0.09 -0.10561348913069199)
(0.1 -0.1544934489258533)
(0.11 -0.21011793662995482)
(0.12 -0.28196928953828576)
(0.13 -0.34488649395998877)
(0.14 -0.4042820366766454)
(0.15 -0.4614558599283732)
(0.16 -0.5073713955368987)
(0.17 -0.5375959478966632)
(0.18 -0.5562177100140536)
(0.19 -0.5672475229605078)
(0.2 -0.5672475229605078)
(0.21 -0.5617326164872807)
(0.22 -0.5518845692136608)
(0.23 -0.5365216154668137)
(0.24 -0.5145225929417427)
(0.25 -0.49634158259044436)
(0.26 -0.47101803245827883)
(0.27 -0.4436530145923818)
(0.28 -0.41492701823733036)
(0.29 -0.3862010218822791)
(0.3 -0.35535693782130146)
(0.31 -0.3245128537603239)
(0.32 -0.29366876969934624)
(0.33 -0.26282468563836864)
(0.34 -0.23815172427382622)
(0.35000000000000003 -0.21347876290928375)
(0.36 -0.18880580154474144)
(0.37 -0.164132840180199)
(0.38 -0.13209776690942826)
(0.39 -0.09924468120463217)
(0.4 -0.06714577686559035)
(0.41000000000000003 -0.035130670456076755)
(0.42 -0.01674168036515388)
(0.43 -0.004192454410769627)
(0.44 0.006802672945806697)
(0.45 0.016761734570511066)
(0.46 0.022289830002836377)
(0.47000000000000003 0.021171476146593097)
(0.48 0.020053122290349824)
(0.49 0.018934768434106547)
(0.5 0.016881083694903657)
(0.51 0.012644960228795006)
(0.52 0.008408836762686358)
(0.53 0.004172713296577707)
(0.54 0.00035580946760333806)
(0.55 0.00031188237283749377)
(0.56 0.0002679552780716494)
(0.5700000000000001 0.00022402818330580508)
(0.58 0.00018010108853996125)
(0.59 0.00013507581640497096)
(0.6 9.005054426998063e-05)
(0.61 4.502527213499031e-05)
(0.62 -0.0)
(0.63 0.001056498511513946)
(0.64 0.002112997023027892)
(0.65 0.0031694955345418375)
(0.66 0.004225994046055784)
(0.67 0.005210981992901939)
(0.68 0.006195969939748095)
(0.6900000000000001 0.00718095788659425)
(0.7000000000000001 0.008165945833440406)
(0.71 0.009146316649285708)
(0.72 0.010124708694702089)
(0.73 0.01110310074011847)
(0.74 0.01208149278553485)
(0.75 0.01044680854785602)
(0.76 0.004892509885534381)
(0.77 -0.0006617887767872598)
(0.78 -0.006216087439108899)
(0.79 -0.007846924067620354)
(0.8 -0.003592567645416534)
(0.81 0.000661788776787285)
(0.8200000000000001 0.004916145198991106)
(0.8300000000000001 0.0066212642412234995)
(0.84 0.0023781627301895894)
(0.85 -0.001864938780844369)
(0.86 -0.0061080402918783265)
(0.87 -0.008906665564003944)
(0.88 0.0012949953140454988)
(0.89 0.011496656192094943)
(0.9 0.02169831707014439)
(0.91 0.031899977948193825)
(0.92 0.013349225040337285)
(0.93 0.00019110839166406457)
(0.9400000000000001 -0.004579848453235941)
(0.9500000000000001 -0.009350805298135947)
(0.96 -0.005976002412943598)
(0.97 -0.0005647595952282264)
(0.98 0.004846483222487143)
(0.99 0.010257726040202517)
(1.0 0.02916597680555278)
(1.01 0.03793467809798397)
(1.02 0.046703379390415155)
(1.03 0.051005006439532326)
(1.04 0.05530663348864951)
(1.05 0.04211812857981771)
(1.06 0.0289296236709859)
(1.07 -0.015173871239193585)
(1.08 -0.06381534633305713)
(1.09 -0.12101280489824169)
(1.1 -0.15835660015980846)
(1.11 -0.1957003954213752)
(1.12 -0.3105680188208781)
(1.1300000000000001 -0.3677654773860637)
(1.1400000000000001 -0.41645422310684077)
(1.1500000000000001 -0.4727062691337577)
(1.16 -0.5247039587384698)
(1.17 -0.5483392721951577)
(1.18 -0.5577933975778328)
(1.19 -0.5672475229605078)
(1.2 -0.5672475229605078)
(1.21 -0.5577933975778328)
(1.22 -0.5507028035408263)
(1.23 -0.54361220950382)
(1.24 -0.5199768960471323)
(1.25 -0.49634158259044436)
(1.26 -0.4608886124054126)
(1.27 -0.43599274889770145)
(1.28 -0.4110968853899903)
(1.29 -0.3862010218822791)
(1.3 -0.35535693782130146)
(1.31 -0.3245128537603239)
(1.32 -0.29366876969934624)
(1.33 -0.26282468563836864)
(1.34 -0.23753490023971266)
(1.35 -0.21224511484105668)
(1.36 -0.1869553294424007)
(1.37 -0.16166554404374475)
(1.3800000000000001 -0.1288124583389483)
(1.3900000000000001 -0.0959593726341518)
(1.4000000000000001 -0.060742755583686935)
(1.41 -0.025526138533222855)
(1.42 -0.01234945128111939)
(1.43 0.0008272359709840739)
(1.44 0.008130547829100613)
(1.45 0.01543385968721715)
(1.46 0.02273717154533369)
(1.47 0.02159085884268433)
(1.48 0.020444546140034967)
(1.49 0.01929823343738561)
(1.5 0.01815192073473625)
(1.51 0.013703991095322169)
(1.52 0.009256061455908087)
(1.53 0.0048081318164940046)
(1.54 0.0003602021770799225)
(1.55 0.00031517690494493216)
(1.56 0.0002701516328099419)
(1.57 0.00022512636067495157)
(1.58 0.00018010108853996125)
(1.59 0.00013507581640497096)
(1.6 9.005054426998063e-05)
(1.61 4.502527213499031e-05)
(1.62 -0.0)
(1.6300000000000001 0.0010564985115139518)
(1.6400000000000001 0.0021129970230279035)
(1.6500000000000001 0.0031694955345418557)
(1.6600000000000001 0.004225994046055807)
(1.67 0.005284856088915399)
(1.68 0.006343718131775014)
(1.69 0.007402580174634628)
(1.7 0.008461442217494243)
(1.71 0.00930285937655233)
(1.72 0.010144276535610416)
(1.73 0.010985693694668501)
(1.74 0.01182711085372659)
(1.75 0.012668528012784676)
(1.76 0.007114229350463037)
(1.77 0.001559930688141397)
(1.78 -0.003994367974180244)
(1.79 -0.009548666636501883)
(1.8 -0.005187951303742979)
(1.81 -0.0008272359709840742)
(1.82 0.0035334793617748305)
(1.83 0.007894194694533735)
(1.84 0.0034389381079480788)
(1.85 -0.001016318478637577)
(1.86 -0.005471575065223233)
(1.87 -0.009926831651808889)
(1.8800000000000001 0.001039953792094324)
(1.8900000000000001 0.012006739235997536)
(1.9000000000000001 0.022973524679900752)
(1.9100000000000001 0.03394031012380304)
(1.92 0.0030536824986040676)
(1.93 -0.0013992105566359196)
(1.94 -0.005852103611875906)
(1.95 -0.010304996667115894)
(1.96 -0.005164315990286291)
(1.97 -2.3635313456689424e-05)
(1.98 0.005117045363372913)
(1.99 0.010257726040202517)
(2.0 0.02916597680555278)
(2.0100000000000002 0.03793467809798416)
(2.02 0.046703379390415155)
(2.0300000000000002 0.05100500643953243)
(2.04 0.05530663348864951)
(2.05 0.042118128579818)
(2.06 0.0289296236709859)
(2.07 -0.015173871239193585)
(2.08 -0.06381534633305713)
(2.09 -0.12101280489824169)
(2.1 -0.1583566001598093)
(2.11 -0.1957003954213752)
(2.12 -0.25337056025569354)
(2.13 -0.3677654773860626)
(2.14 -0.4164542231068395)
(2.15 -0.4727062691337566)
(2.16 -0.5247039587384698)
(2.17 -0.5483392721951577)
(2.18 -0.557793397577833)
(2.19 -0.5672475229605078)
(2.2 -0.5672475229605078)
(2.21 -0.5577933975778328)
(2.22 -0.5507028035408262)
(2.23 -0.54361220950382)
(2.24 -0.5199768960471323)
(2.25 -0.49634158259044436)
(2.2600000000000002 -0.46088861240541157)
(2.27 -0.4359927488977011)
(2.2800000000000002 -0.41109688538998956)
(2.29 -0.3862010218822791)
(2.3000000000000003 -0.3553569378213008)
(2.31 -0.3245128537603239)
(2.32 -0.2936687696993469)
(2.33 -0.26282468563836864)
(2.34 -0.23753490023971324)
(2.35 -0.21224511484105668)
(2.36 -0.18695532944240129)
(2.37 -0.16166554404374475)
(2.38 -0.12881245833894941)
(2.39 -0.09595937263415258)
(2.4 -0.0607427555836885)
(2.41 -0.025526138533222855)
(2.42 -0.012349451281119684)
(2.43 0.0008272359709840739)
(2.44 0.008130547829100505)
(2.45 0.015433859687217256)
(2.46 0.02273717154533369)
(2.47 0.021590858842684305)
(2.48 0.020444546140034967)
(2.49 0.019298233437385584)
(2.5 0.01815192073473625)
(2.5100000000000002 0.01370399109532207)
(2.52 0.009256061455908087)
(2.5300000000000002 0.0048081318164939066)
(2.54 0.0003602021770799225)
(2.5500000000000003 0.0003151769049449312)
(2.56 0.0002701516328099419)
(2.57 0.00022512636067495255)
(2.58 0.00018010108853996125)
(2.59 0.00013507581640497194)
(2.6 9.005054426998063e-05)
(2.61 4.502527213499131e-05)
(2.62 -0.0)
(2.63 0.0010564985115139225)
(2.64 0.002112997023027892)
(2.65 0.003169495534541814)
(2.66 0.004225994046055784)
(2.67 0.005284856088915374)
(2.68 0.006343718131775014)
(2.69 0.007402580174634604)
(2.7 0.008461442217494243)
(2.71 0.009302859376552314)
(2.72 0.010144276535610423)
(2.73 0.010985693694668496)
(2.74 0.011827110853726605)
(2.75 0.012668528012784676)
(2.7600000000000002 0.007114229350462913)
(2.77 0.001559930688141397)
(2.7800000000000002 -0.003994367974180365)
(2.79 -0.009548666636501883)
(2.8000000000000003 -0.005187951303742882)
(2.81 -0.0008272359709840742)
(2.82 0.0035334793617747317)
(2.83 0.007894194694533735)
(2.84 0.0034389381079481776)
(2.85 -0.001016318478637577)
(2.86 -0.005471575065223133)
(2.87 -0.009926831651808889)
(2.88 0.0010399537920940196)
(2.89 0.012006739235997415)
(2.9 0.022973524679900322)
(2.91 0.03394031012380372)
(2.92 0.0030536824986040676)
(2.93 -0.0013992105566359853)
(2.94 -0.005852103611875841)
(2.95 -0.010304996667115894)
(2.96 -0.005164315990286405)
(2.97 -2.3635313456689424e-05)
(2.98 0.0051170453633727995)
(2.99 0.010257726040202517)
(3.0 0.02916597680555278)
(3.0100000000000002 0.03793467809798416)
(3.02 0.046703379390415155)
(3.0300000000000002 0.05100500643953243)
(3.04 0.05530663348864951)
(3.0500000000000003 0.042118128579817414)
(3.06 0.0289296236709859)
(3.0700000000000003 -0.015173871239195745)
(3.08 -0.06381534633305713)
(3.09 -0.12101280489824169)
(3.1 -0.1583566001598093)
(3.11 -0.1957003954213752)
(3.12 -0.25337056025569354)
(3.13 -0.3677654773860626)
(3.14 -0.4164542231068395)
(3.15 -0.4727062691337566)
(3.16 -0.5247039587384698)
(3.17 -0.5483392721951577)
(3.18 -0.557793397577833)
(3.19 -0.5672475229605078)
(3.2 -0.5672475229605078)
(3.21 -0.5577933975778328)
(3.22 -0.5507028035408262)
(3.23 -0.54361220950382)
(3.24 -0.5199768960471323)
(3.25 -0.49634158259044436)
(3.2600000000000002 -0.46088861240541157)
(3.27 -0.4359927488977011)
(3.2800000000000002 -0.41109688538998956)
(3.29 -0.3862010218822791)
(3.3000000000000003 -0.3553569378213008)
(3.31 -0.3245128537603239)
(3.3200000000000003 -0.2936687696993456)
(3.33 -0.26282468563836864)
(3.34 -0.23753490023971324)
(3.35 -0.21224511484105668)
(3.36 -0.18695532944240129)
(3.37 -0.16166554404374475)
(3.38 -0.12881245833894941)
(3.39 -0.09595937263415258)
(3.4 -0.0607427555836885)
(3.41 -0.025526138533222855)
(3.42 -0.012349451281119684)
(3.43 0.0008272359709840739)
(3.44 0.008130547829100505)
(3.45 0.015433859687217256)
(3.46 0.02273717154533369)
(3.47 0.021590858842684305)
(3.48 0.020444546140034967)
(3.49 0.019298233437385584)
(3.5 0.01815192073473625)
(3.5100000000000002 0.01370399109532207)
(3.52 0.009256061455908087)
(3.5300000000000002 0.0048081318164939066)
(3.54 0.0003602021770799225)
(3.5500000000000003 0.0003151769049449312)
(3.56 0.0002701516328099419)
(3.5700000000000003 0.00022512636067495057)
(3.58 0.00018010108853996125)
(3.59 0.00013507581640497194)
(3.6 9.005054426998063e-05)
(3.61 4.502527213499131e-05)
(3.62 -0.0)
(3.63 0.0010564985115139225)
(3.64 0.002112997023027892)
(3.65 0.003169495534541814)
(3.66 0.004225994046055784)
(3.67 0.005284856088915374)
(3.68 0.006343718131775014)
(3.69 0.007402580174634604)
(3.7 0.008461442217494243)
(3.71 0.009302859376552314)
(3.72 0.010144276535610423)
(3.73 0.010985693694668496)
(3.74 0.011827110853726605)
(3.75 0.012668528012784676)
(3.7600000000000002 0.007114229350462913)
(3.77 0.001559930688141397)
(3.7800000000000002 -0.003994367974180365)
(3.79 -0.009548666636501883)
(3.8000000000000003 -0.005187951303742882)
(3.81 -0.0008272359709840742)
(3.8200000000000003 0.0035334793617749272)
(3.83 0.007894194694533735)
(3.84 0.0034389381079481776)
(3.85 -0.001016318478637577)
(3.86 -0.005471575065223133)
(3.87 -0.009926831651808889)
(3.88 0.0010399537920940196)
(3.89 0.012006739235997415)
(3.9 0.022973524679900322)
(3.91 0.03394031012380372)
(3.92 0.0030536824986040676)
(3.93 -0.0013992105566359853)
(3.94 -0.005852103611875841)
(3.95 -0.010304996667115894)
(3.96 -0.005164315990286405)
(3.97 -2.3635313456689424e-05)
(3.98 0.0051170453633727995)
(3.99 0.010257726040202517)
(4.0 0.02916597680555278)
(4.01 0.03793467809798397)
(4.0200000000000005 0.04670337939041553)
(4.03 0.05100500643953252)
(4.04 0.05530663348864951)
(4.05 0.04211812857981771)
(4.0600000000000005 0.028929623670981983)
(4.07 -0.015173871239193585)
(4.08 -0.06381534633305713)
(4.09 -0.12101280489824169)
(4.1 -0.1583566001598068)
(4.11 -0.1957003954213752)
(4.12 -0.25337056025569354)
(4.13 -0.3677654773860626)
(4.14 -0.4164542231068395)
(4.15 -0.4727062691337566)
(4.16 -0.5247039587384698)
(4.17 -0.5483392721951577)
(4.18 -0.5577933975778323)
(4.19 -0.5672475229605078)
(4.2 -0.5672475229605078)
(4.21 -0.5577933975778328)
(4.22 -0.5507028035408267)
(4.23 -0.54361220950382)
(4.24 -0.5199768960471323)
(4.25 -0.49634158259044436)
(4.26 -0.4608886124054126)
(4.2700000000000005 -0.4359927488977)
(4.28 -0.41109688538998956)
(4.29 -0.3862010218822791)
(4.3 -0.35535693782130223)
(4.3100000000000005 -0.3245128537603225)
(4.32 -0.2936687696993456)
(4.33 -0.26282468563836864)
(4.34 -0.23753490023971324)
(4.3500000000000005 -0.21224511484105557)
(4.36 -0.18695532944240018)
(4.37 -0.16166554404374475)
(4.38 -0.12881245833894867)
(4.39 -0.09595937263415258)
(4.4 -0.06074275558368616)
(4.41 -0.025526138533222855)
(4.42 -0.01234945128111939)
(4.43 0.0008272359709840739)
(4.44 0.008130547829101045)
(4.45 0.015433859687217366)
(4.46 0.02273717154533369)
(4.47 0.021590858842684354)
(4.48 0.02044454614003492)
(4.49 0.019298233437385584)
(4.5 0.01815192073473625)
(4.51 0.013703991095322268)
(4.5200000000000005 0.009256061455907889)
(4.53 0.0048081318164939066)
(4.54 0.0003602021770799225)
(4.55 0.00031517690494493324)
(4.5600000000000005 0.00027015163280993986)
(4.57 0.00022512636067495057)
(4.58 0.00018010108853996125)
(4.59 0.00013507581640497194)
(4.6000000000000005 9.005054426997863e-05)
(4.61 4.5025272134989304e-05)
(4.62 -0.0)
(4.63 0.0010564985115139225)
(4.64 0.002112997023027845)
(4.65 0.0031694955345418613)
(4.66 0.004225994046055784)
(4.67 0.005284856088915374)
(4.68 0.006343718131774966)
(4.69 0.007402580174634652)
(4.7 0.008461442217494243)
(4.71 0.009302859376552314)
(4.72 0.010144276535610387)
(4.73 0.010985693694668534)
(4.74 0.011827110853726605)
(4.75 0.012668528012784676)
(4.76 0.00711422935046316)
(4.7700000000000005 0.0015599306881411493)
(4.78 -0.003994367974180365)
(4.79 -0.009548666636501883)
(4.8 -0.0051879513037430755)
(4.8100000000000005 -0.000827235970983881)
(4.82 0.0035334793617749272)
(4.83 0.007894194694533735)
(4.84 0.0034389381079481776)
(4.8500000000000005 -0.0010163184786377744)
(4.86 -0.005471575065223332)
(4.87 -0.009926831651808889)
(4.88 0.0010399537920940196)
(4.89 0.012006739235996928)
(4.9 0.022973524679900808)
(4.91 0.03394031012380372)
(4.92 0.0030536824986040676)
(4.93 -0.0013992105566357873)
(4.94 -0.0058521036118760385)
(4.95 -0.010304996667115894)
(4.96 -0.005164315990286405)
(4.97 -2.363531345691614e-05)
(4.98 0.0051170453633730285)
(4.99 0.010257726040202517)
(5.0 0.02916597680555278)
(5.01 0.03793467809798397)
(5.0200000000000005 0.04670337939041553)
(5.03 0.05100500643953252)
(5.04 0.05530663348864951)
(5.05 0.04211812857981771)
(5.0600000000000005 0.028929623670981983)
(5.07 -0.015173871239193585)
(5.08 -0.06381534633305713)
(5.09 -0.12101280489824169)
(5.1000000000000005 -0.1583566001598101)
(5.11 -0.1957003954213752)
(5.12 -0.25337056025569354)
(5.13 -0.3677654773860626)
(5.14 -0.4164542231068395)
(5.15 -0.4727062691337566)
(5.16 -0.5247039587384698)
(5.17 -0.5483392721951577)
(5.18 -0.5577933975778323)
(5.19 -0.5672475229605078)
(5.2 -0.5672475229605078)
(5.21 -0.5577933975778328)
(5.22 -0.5507028035408267)
(5.23 -0.54361220950382)
(5.24 -0.5199768960471323)
(5.25 -0.49634158259044436)
(5.26 -0.4608886124054126)
(5.2700000000000005 -0.4359927488977)
(5.28 -0.41109688538998956)
(5.29 -0.3862010218822791)
(5.3 -0.35535693782130223)
(5.3100000000000005 -0.3245128537603225)
(5.32 -0.2936687696993456)
(5.33 -0.26282468563836864)
(5.34 -0.23753490023971324)
(5.3500000000000005 -0.21224511484105557)
(5.36 -0.18695532944240018)
(5.37 -0.16166554404374475)
(5.38 -0.12881245833894867)
(5.39 -0.09595937263415258)
(5.4 -0.06074275558368616)
(5.41 -0.025526138533222855)
(5.42 -0.01234945128111939)
(5.43 0.0008272359709840739)
(5.44 0.008130547829101045)
(5.45 0.015433859687217366)
(5.46 0.02273717154533369)
(5.47 0.021590858842684354)
(5.48 0.02044454614003492)
(5.49 0.019298233437385584)
(5.5 0.01815192073473625)
(5.51 0.013703991095322268)
(5.5200000000000005 0.009256061455907889)
(5.53 0.0048081318164939066)
(5.54 0.0003602021770799225)
(5.55 0.00031517690494493324)
(5.5600000000000005 0.00027015163280993986)
(5.57 0.00022512636067495057)
(5.58 0.00018010108853996125)
(5.59 0.00013507581640497194)
(5.6000000000000005 9.005054426997863e-05)
(5.61 4.5025272134989304e-05)
(5.62 -0.0)
(5.63 0.0010564985115139225)
(5.64 0.002112997023027845)
(5.65 0.0031694955345418613)
(5.66 0.004225994046055784)
(5.67 0.005284856088915374)
(5.68 0.006343718131774966)
(5.69 0.007402580174634652)
(5.7 0.008461442217494243)
(5.71 0.009302859376552314)
(5.72 0.010144276535610387)
(5.73 0.010985693694668534)
(5.74 0.011827110853726605)
(5.75 0.012668528012784676)
(5.76 0.00711422935046316)
(5.7700000000000005 0.0015599306881411493)
(5.78 -0.003994367974180365)
(5.79 -0.009548666636501883)
(5.8 -0.0051879513037430755)
(5.8100000000000005 -0.000827235970983881)
(5.82 0.0035334793617749272)
(5.83 0.007894194694533735)
(5.84 0.0034389381079481776)
(5.8500000000000005 -0.0010163184786377744)
(5.86 -0.005471575065223332)
(5.87 -0.009926831651808889)
(5.88 0.0010399537920940196)
(5.89 0.012006739235996928)
(5.9 0.022973524679900808)
(5.91 0.03394031012380372)
(5.92 0.0030536824986040676)
(5.93 -0.0013992105566357873)
(5.94 -0.0058521036118760385)
(5.95 -0.010304996667115894)
(5.96 -0.005164315990286405)
(5.97 -2.363531345691614e-05)
(5.98 0.0051170453633730285)

    );
    }



    contour
    {	     
        phi_R (
    (-3.141592653589793 0.007759354457978079)
(-3.110018858076328 0.007769475820581293)
(-3.0784450625628628 0.00778415929586353)
(-3.046871267049397 0.007802310773242362)
(-3.015297471535932 0.007815499402305378)
(-2.983723676022467 0.007835861743715051)
(-2.9521498805090016 0.007846985739998483)
(-2.9205760849955364 0.007867183149714227)
(-2.889002289482071 0.007885615706761136)
(-2.8574284939686057 0.007903060899302063)
(-2.8258546984551405 0.00792556492046312)
(-2.7942809029416753 0.007940094804302876)
(-2.76270710742821 0.00796268656743884)
(-2.7311333119147445 0.007986260555383156)
(-2.6995595164012793 0.008005435942003612)
(-2.667985720887814 0.008034559705480077)
(-2.636411925374349 0.008057341725372872)
(-2.604838129860884 0.008081788638294882)
(-2.573264334347418 0.008111815840684882)
(-2.5416905388339535 0.008144879904272975)
(-2.510116743320488 0.008183646954612942)
(-2.4785429478070227 0.008232853550435178)
(-2.4469691522935575 0.008287262419741733)
(-2.4153953567800923 0.008328231434370437)
(-2.383821561266627 0.008372996776916964)
(-2.3522477657531615 0.00839837439035945)
(-2.3206739702396963 0.008427134963982725)
(-2.289100174726231 0.008428790769368132)
(-2.257526379212766 0.008426496919723043)
(-2.225952583699301 0.008414457284794752)
(-2.194378788185835 0.008408308642026867)
(-2.16280499267237 0.008396272438348729)
(-2.131231197158905 0.008383988821949993)
(-2.0996574016454397 0.008378696864995337)
(-2.0680836061319745 0.008361226987195304)
(-2.036509810618509 0.008348126416355186)
(-2.0049360151050437 0.008336858782799926)
(-1.9733622195915785 0.008315627277473609)
(-1.9417884240781134 0.008303354969563212)
(-1.910214628564648 0.008281129687396173)
(-1.8786408330511828 0.008263908288745493)
(-1.8470670375377176 0.008243598466866146)
(-1.8154932420242522 0.008220611975467947)
(-1.783919446510787 0.008194248614457313)
(-1.7523456509973219 0.008170950263192468)
(-1.7207718554838565 0.008151493025424639)
(-1.6891980599703913 0.008134251197732595)
(-1.657624264456926 0.008123442162415588)
(-1.6260504689434607 0.00811075869161838)
(-1.5944766734299956 0.008108482690751349)
(-1.5629028779165302 0.008103868053919442)
(-1.531329082403065 0.0081088106442541)
(-1.4997552868895996 0.008115084875272403)
(-1.4681814913761344 0.008128889306385981)
(-1.4366076958626692 0.008137094183428251)
(-1.4050339003492038 0.008155647561763929)
(-1.3734601048357387 0.008161794224072788)
(-1.3418863093222735 0.008173719457912799)
(-1.310312513808808 0.008187718141036726)
(-1.278738718295343 0.00820219257762951)
(-1.2471649227818777 0.008201070316059426)
(-1.2155911272684123 0.008202811136564585)
(-1.1840173317549472 0.008205436446685732)
(-1.1524435362414818 0.00820750193456485)
(-1.1208697407280166 0.008211488061648455)
(-1.0892959452145514 0.008215854732282412)
(-1.0577221497010862 0.00822692052196311)
(-1.0261483541876206 0.008230398640898329)
(-0.9945745586741555 0.008230554993983388)
(-0.9630007631606903 0.008241949452597874)
(-0.9314269676472251 0.008240230097142016)
(-0.8998531721337599 0.008244982627835773)
(-0.8682793766202943 0.00824860947536126)
(-0.8367055811068291 0.008245218940295762)
(-0.805131785593364 0.008248444362792616)
(-0.7735579900798988 0.00824188902026121)
(-0.7419841945664336 0.008239903400308526)
(-0.7104103990529684 0.008228176656415526)
(-0.6788366035395028 0.008219872341061729)
(-0.6472628080260376 0.008209543143869054)
(-0.6156890125125725 0.008207642874757103)
(-0.5841152169991073 0.008207023460612185)
(-0.5525414214856421 0.008209883060190501)
(-0.5209676259721765 0.00821312944679094)
(-0.4893938304587113 0.008217238339318938)
(-0.45782003494524615 0.008222113409078363)
(-0.42624623943178097 0.008224945382968134)
(-0.3946724439183158 0.008232817308435161)
(-0.3630986484048506 0.00824329129690739)
(-0.331524852891385 0.008258135722080218)
(-0.2999510573779198 0.00826999143717818)
(-0.26837726186445465 0.008293511099653234)
(-0.23680346635098948 0.008301536301299761)
(-0.2052296708375243 0.008319541178435311)
(-0.17365587532405868 0.008331407902673395)
(-0.1420820798105935 0.00835003873309802)
(-0.11050828429712833 0.008354924724254104)
(-0.07893448878366316 0.008368488868499517)
(-0.047360693270197984 0.008373879845744593)
(-0.015786897756732365 0.008385329893544798)
(0.01578689775673281 0.008400908766859769)
(0.047360693270197984 0.008414967833628245)
(0.07893448878366316 0.008437459435701304)
(0.11050828429712833 0.00845569477252045)
(0.14208207981059395 0.00847849489468813)
(0.17365587532405913 0.008507894601635774)
(0.2052296708375243 0.008531796857390072)
(0.23680346635098948 0.008561248761972923)
(0.26837726186445465 0.008591075833623686)
(0.2999510573779198 0.008613530214049148)
(0.33152485289138545 0.00863199203274929)
(0.3630986484048506 0.008635346030312447)
(0.3946724439183158 0.008631785670506435)
(0.42624623943178097 0.008628567787308703)
(0.45782003494524615 0.008630663671678362)
(0.48939383045871176 0.00863432167327867)
(0.5209676259721769 0.008630824049137963)
(0.5525414214856421 0.008630065916026356)
(0.5841152169991073 0.008632721103086088)
(0.6156890125125725 0.008643799235637281)
(0.6472628080260376 0.008644392655867862)
(0.6788366035395033 0.008646252501866908)
(0.7104103990529684 0.008642077076211853)
(0.7419841945664336 0.008638100619504863)
(0.7735579900798988 0.008642118673462543)
(0.805131785593364 0.008634128148054043)
(0.8367055811068296 0.008627681779017706)
(0.8682793766202943 0.008618252321612108)
(0.8998531721337599 0.008607634536156771)
(0.9314269676472255 0.008596400326721567)
(0.9630007631606903 0.008583138343355022)
(0.9945745586741559 0.008563823657916214)
(1.0261483541876206 0.008544803223621247)
(1.0577221497010862 0.008518415147340006)
(1.0892959452145519 0.008495081525417543)
(1.1208697407280166 0.008468802114022607)
(1.1524435362414822 0.008452018892844242)
(1.184017331754947 0.008432578466262105)
(1.2155911272684126 0.008426441031632089)
(1.2471649227818782 0.008423054007072639)
(1.278738718295343 0.008425775499240552)
(1.3103125138088085 0.00839825002579406)
(1.3418863093222733 0.008373083233547343)
(1.3734601048357389 0.008344399520406)
(1.4050339003492045 0.008322908734627928)
(1.4366076958626692 0.008300688436572242)
(1.4681814913761349 0.008277627972780158)
(1.4997552868895996 0.008258318579592304)
(1.5313290824030652 0.00824051612033529)
(1.56290287791653 0.00822907668759187)
(1.5944766734299956 0.008215440365912456)
(1.6260504689434612 0.008211326282936748)
(1.657624264456926 0.008207138013345522)
(1.6891980599703915 0.008208492101782656)
(1.7207718554838562 0.008205016571504563)
(1.7523456509973219 0.00820734889815785)
(1.7839194465107875 0.008213755331580355)
(1.8154932420242522 0.008224722064666002)
(1.8470670375377178 0.008233190749497334)
(1.8786408330511826 0.00823905373796729)
(1.9102146285646482 0.008233622967735405)
(1.9417884240781138 0.00822771392230802)
(1.9733622195915785 0.008210499803990245)
(2.004936015105044 0.008195592916605614)
(2.036509810618509 0.008174263110642198)
(2.0680836061319745 0.008148633982517943)
(2.09965740164544 0.00812487450131217)
(2.131231197158905 0.008091385737831495)
(2.1628049926723705 0.008069126952177302)
(2.194378788185835 0.008036975883796524)
(2.225952583699301 0.008010695331032736)
(2.2575263792127664 0.007978038203428033)
(2.289100174726231 0.007948823607111306)
(2.320673970239697 0.007915506427266988)
(2.3522477657531615 0.007885998243925007)
(2.383821561266627 0.007850224365261057)
(2.415395356780092 0.0078097213354064825)
(2.4469691522935575 0.007774772523290357)
(2.478542947807023 0.007728581960337512)
(2.510116743320488 0.00768942974023675)
(2.5416905388339535 0.007659981573386323)
(2.573264334347418 0.007631678827640039)
(2.604838129860884 0.00761007408242201)
(2.6364119253743494 0.007594665505982101)
(2.667985720887814 0.007586610176159543)
(2.69955951640128 0.007585506446456828)
(2.7311333119147445 0.007587959237977032)
(2.76270710742821 0.007597463244373412)
(2.7942809029416757 0.0076051456264257895)
(2.8258546984551405 0.0076210000915604235)
(2.857428493968606 0.007629883276008611)
(2.889002289482071 0.0076414356091747074)
(2.9205760849955364 0.007659082933317558)
(2.952149880509002 0.007666274878943148)
(2.983723676022467 0.007681690613667168)
(3.0152974715359324 0.007700076260990338)
(3.046871267049397 0.007708239157373149)
(3.0784450625628628 0.007725436767472045)
(3.1100188580763284 0.007738775332920255)
(3.141592653589793 0.007754146951032088)

    );

    }

    // ************************************************************************* //
    
    