// -*- C++ -*-
// File generated by PyFoam - sorry for the ugliness

FoamFile
{
 version 2.0;
 format ascii;
 class dictionary;
 object blockMeshDict;
}

convertToMeters 1;

vertices (  (-0.02282389705328435 -0.020970820324170046 -0.13131478014435017)
 (0.05681314069506268 -0.020970820324170046 -0.13131478014435017)
 (0.05681314069506268 0.07947784939873467 -0.13131478014435017)
 (-0.02282389705328435 0.07947784939873467 -0.13131478014435017)
 (-0.02282389705328435 -0.020970820324170046 -0.0004999992408917294)
 (0.05681314069506268 -0.020970820324170046 -0.0004999992408917294)
 (0.05681314069506268 0.07947784939873467 -0.0004999992408917294)
 (-0.02282389705328435 0.07947784939873467 -0.0004999992408917294));

blocks (hex (0 1 2 3 4 5 6 7) (50 50 50) simpleGrading (1 1 1));

edges
  (
  );

boundary
  (
    outlet

    {
      type patch;
      faces
        (

          (
            0
            3
            2
            1
          )
        );

    }
    
    
    inlet

    {
      type patch;
      faces
        (

          (
            4
            5
            6
            7
          )
        );

    }
    aortaWall
        {
            type wall;
            faces
            (
                (0 3 7 4)
                (0 1 5 4)
                (1 2 6 5)
                (2 3 7 6)
            );
        }
  ); 	// ************************************************************************* //

